Circuit: * \\psf\Home\Documents\Lettuce Buddy HW\HealthyEC\LTSpice\Draft1.asc

R4: both pins shorted together -- ignoring.
Direct Newton iteration for .op point succeeded.
Ignoring empty pin current: Ix(u2:1)
Ignoring empty pin current: Ix(u2:2)
Ignoring empty pin current: Ix(u2:1)
Ignoring empty pin current: Ix(u2:2)

Date: Sat Aug 30 06:31:01 2014
Total elapsed time: 0.031 seconds.

tnom = 27
temp = 27
method = modified trap
totiter = 71
traniter = 68
tranpoints = 35
accept = 35
rejected = 0
matrix size = 6
fillins = 0
solver = Normal
Matrix Compiler1: 128 bytes object code size
Matrix Compiler2: 320 bytes object code size

