Circuit: * \\psf\Home\Documents\Lettuce Buddy HW\HealthyEC\LTSpice\Draft1.asc

Direct Newton iteration for .op point succeeded.

Date: Thu Sep 04 03:11:02 2014
Total elapsed time: 0.032 seconds.

tnom = 27
temp = 27
method = modified trap
totiter = 67
traniter = 64
tranpoints = 33
accept = 33
rejected = 0
matrix size = 3
fillins = 0
solver = Normal
Matrix Compiler1: 50 bytes object code size
Matrix Compiler2: 175 bytes object code size

