Circuit: * \\psf\Home\Documents\Lettuce Buddy HW\HealthyEC\LTSpice\Draft2.asc

Direct Newton iteration for .op point succeeded.

Date: Tue Sep 02 03:49:30 2014
Total elapsed time: 0.016 seconds.

tnom = 27
temp = 27
method = modified trap
totiter = 67
traniter = 64
tranpoints = 33
accept = 33
rejected = 0
matrix size = 2
fillins = 0
solver = Normal
Matrix Compiler1: 36 bytes object code size
Matrix Compiler2: 96 bytes object code size

