Circuit: * \\psf\Home\Documents\Lettuce Buddy HW\HealthyEC\LTSpice\Draft3.asc

Direct Newton iteration for .op point succeeded.

Date: Sat Aug 30 06:07:16 2014
Total elapsed time: 0.062 seconds.

tnom = 27
temp = 27
method = modified trap
totiter = 71
traniter = 68
tranpoints = 35
accept = 35
rejected = 0
matrix size = 3
fillins = 0
solver = Normal
Matrix Compiler1: 50 bytes object code size
Matrix Compiler2: 175 bytes object code size

