Circuit: * \\psf\Home\Documents\Lettuce Buddy HW\HealthyEC\LTSpice\EC_Float_LT1413.asc

WARNING: Less than two connections to node -5V.  This node is used by V2.
Early termination of direct N-R iteration.
Direct Newton iteration failed to find .op point.  (Use ".option noopiter" to skip.)
Starting Gmin stepping
Gmin = 10
Gmin = 1.07374
Gmin = 0.115292
Gmin = 0.0123794
Gmin = 0.00132923
Gmin = 0.000142725
Gmin = 1.5325e-005
Gmin = 1.6455e-006
Gmin = 1.76685e-007
Gmin = 1.89714e-008
Gmin = 2.03704e-009
Gmin = 2.18725e-010
Gmin = 2.34854e-011
Gmin = 2.52173e-012
Gmin = 2.70769e-013
Gmin = 0
Gmin stepping succeeded in finding the operating point.

.step r=200
.step r=1000

Date: Fri Sep 12 10:30:23 2014
Total elapsed time: 2.965 seconds.

tnom = 27
temp = 27
method = modified trap
totiter = 64373
traniter = 64042
tranpoints = 25354
accept = 17849
rejected = 7505
matrix size = 43
fillins = 30
solver = Normal
Thread vector: 31.3/12.0[4] 8.2/3.5[4] 3.0/1.8[4] 0.4/1.0[1]  2592/500
Matrix Compiler1: 3.69 KB object code size  1.2/0.9/[0.6]
Matrix Compiler2: 4.17 KB object code size  0.7/0.8/[0.5]


