Circuit: * \\psf\Home\Documents\Lettuce Buddy HW\HealthyEC\LTSpice\ECCircuitWithFloatingGNDV1.asc

Early termination of direct N-R iteration.
Direct Newton iteration failed to find .op point.  (Use ".option noopiter" to skip.)
Starting Gmin stepping
Gmin = 10
vernier = 0.5
vernier = 0.25
vernier = 0.125
Gmin = 5.5165
vernier = 0.0625
vernier = 0.03125
vernier = 0.015625
vernier = 0.0078125
Gmin = 5.49501
vernier = 0.00390625
vernier = 0.00195313
vernier = 0.000976563
vernier = 0.000488281
Gmin = 5.50104
Gmin = 0
Gmin stepping succeeded in finding the operating point.

Heightened Def Con from 8.0794e-007 to 8.0994e-007
Heightened Def Con from 8.61259e-007 to 8.62384e-007
Heightened Def Con from 9.22083e-007 to 9.22333e-007
Heightened Def Con from 2.86196e-006 to 2.86196e-006
Heightened Def Con from 2.86196e-006 to 2.86196e-006
Heightened Def Con from 2.86196e-006 to 2.86208e-006
Heightened Def Con from 2.86208e-006 to 2.86233e-006
Heightened Def Con from 2.86236e-006 to 2.86436e-006
Heightened Def Con from 2.87036e-006 to 2.87036e-006
Heightened Def Con from 2.87036e-006 to 2.87038e-006
Heightened Def Con from 2.87039e-006 to 2.87051e-006
Heightened Def Con from 2.87052e-006 to 2.87252e-006
Heightened Def Con from 2.87253e-006 to 2.87354e-006
Heightened Def Con from 2.87354e-006 to 2.87367e-006
Heightened Def Con from 2.87367e-006 to 2.87479e-006
Heightened Def Con from 2.87511e-006 to 2.87523e-006
Heightened Def Con from 2.87523e-006 to 2.87625e-006
Heightened Def Con from 2.87628e-006 to 2.87828e-006
Heightened Def Con from 2.88101e-006 to 2.88114e-006
Heightened Def Con from 2.88114e-006 to 2.88114e-006
Heightened Def Con from 2.88114e-006 to 2.88126e-006
Heightened Def Con from 2.88126e-006 to 2.88126e-006
Heightened Def Con from 2.88126e-006 to 2.88127e-006
Heightened Def Con from 2.88127e-006 to 2.88127e-006
Heightened Def Con from 2.88127e-006 to 2.88127e-006
Heightened Def Con from 2.88127e-006 to 2.88129e-006
Heightened Def Con from 2.88129e-006 to 2.88129e-006
Heightened Def Con from 2.88129e-006 to 2.88129e-006
Heightened Def Con from 2.88129e-006 to 2.88241e-006
Heightened Def Con from 2.88241e-006 to 2.88266e-006
Heightened Def Con from 2.88268e-006 to 2.8837e-006
Heightened Def Con from 2.8837e-006 to 2.8847e-006
Heightened Def Con from 2.8847e-006 to 2.88484e-006
Heightened Def Con from 2.88485e-006 to 2.88485e-006
Heightened Def Con from 2.88485e-006 to 2.8851e-006
Heightened Def Con from 2.8851e-006 to 2.8871e-006
Heightened Def Con from 2.8871e-006 to 2.88723e-006
Heightened Def Con from 2.88723e-006 to 2.88723e-006
Heightened Def Con from 2.88723e-006 to 2.88725e-006
Heightened Def Con from 2.88725e-006 to 2.88725e-006
Heightened Def Con from 2.88725e-006 to 2.8875e-006
Heightened Def Con from 2.88775e-006 to 2.88888e-006
Heightened Def Con from 2.88888e-006 to 2.88889e-006
Heightened Def Con from 2.88889e-006 to 2.88914e-006
Heightened Def Con from 2.88939e-006 to 2.88939e-006
Heightened Def Con from 2.88939e-006 to 2.88941e-006
Heightened Def Con from 2.88941e-006 to 2.89141e-006
Heightened Def Con from 2.89141e-006 to 2.89253e-006
Heightened Def Con from 2.89276e-006 to 2.89476e-006
Heightened Def Con from 2.8948e-006 to 2.8948e-006
Heightened Def Con from 2.8948e-006 to 2.89592e-006
Heightened Def Con from 2.89656e-006 to 2.89681e-006
Heightened Def Con from 2.89681e-006 to 2.89706e-006
Heightened Def Con from 2.89707e-006 to 2.89807e-006
Heightened Def Con from 2.89807e-006 to 2.8981e-006
Heightened Def Con from 2.89814e-006 to 2.89814e-006
Heightened Def Con from 2.89814e-006 to 2.89814e-006
Heightened Def Con from 2.89814e-006 to 2.89827e-006
Heightened Def Con from 2.89828e-006 to 2.8993e-006
Heightened Def Con from 2.89939e-006 +to 2.90139e-006
Heightened Def Con from 2.90165e-006 to 2.90165e-006
Heightened Def Con from 2.90165e-006 to 2.90165e-006
Heightened Def Con from 2.90165e-006 to 2.90267e-006
Heightened Def Con from 2.90267e-006 +to 2.90267e-006
Heightened Def Con from 2.90267e-006 to 2.90267e-006
Heightened Def Con from 2.90267e-006 to 2.90292e-006
Heightened Def Con from 2.90292e-006 to 2.90292e-006
Heightened Def Con from 2.90292e-006 to 2.90293e-006
Heightened Def Con from 2.90294e-006 to 2.90294e-006
Heightened Def Con from 2.90294e-006 to 2.90294e-006
Heightened Def Con from 2.90294e-006 to 2.90307e-006
Heightened Def Con from 2.90307e-006 to 2.90307e-006
Heightened Def Con from 2.90307e-006 to 2.90307e-006
Heightened Def Con from 2.90307e-006 to 2.90307e-006
Heightened Def Con from 2.90307e-006 to 2.90321e-006
Heightened Def Con from 2.90321e-006 to 2.90421e-006
Heightened Def Con from 2.90421e-006 to 2.90421e-006
Heightened Def Con from 2.90421e-006 to 2.90421e-006
Heightened Def Con from 2.90421e-006 +to 2.90421e-006
Heightened Def Con from 2.90421e-006 to 2.90424e-006
Heightened Def Con from 2.90425e-006 to 2.90425e-006
Heightened Def Con from 2.90425e-006 to 2.90425e-006
Heightened Def Con from 2.90425e-006 to 2.90437e-006
Heightened Def Con from 2.90437e-006 +to 2.90437e-006
Heightened Def Con from 2.90437e-006 to 2.90437e-006
Heightened Def Con from 2.90438e-006 to 2.90438e-006
Heightened Def Con from 2.90438e-006 to 2.9045e-006
Heightened Def Con from 2.9045e-006 to 2.90452e-006
Heightened Def Con from 2.90452e-006 to 2.90452e-006
Heightened Def Con from 2.90452e-006 to 2.90552e-006
Heightened Def Con from 2.90552e-006 to 2.90654e-006
Heightened Def Con from 2.90656e-006 to 2.90657e-006
Heightened Def Con from 2.90657e-006 to 2.90657e-006
Heightened Def Con from 2.90657e-006 to 2.90657e-006
Heightened Def Con from 2.90657e-006 to 2.90657e-006
Heightened Def Con from 2.90657e-006 to 2.90657e-006
Heightened Def Con from 2.90657e-006 +to 2.90757e-006
Heightened Def Con from 2.90789e-006 to 2.90789e-006
Heightened Def Con from 2.90789e-006 to 2.90989e-006
Heightened Def Con from 2.9264e-006 to 2.92642e-006
Heightened Def Con from 2.92643e-006 to 2.92843e-006
Heightened Def Con from 2.92846e-006 to 2.92871e-006
Heightened Def Con from 2.92871e-006 to 2.92984e-006
Heightened Def Con from 2.93032e-006 to 2.93057e-006
Heightened Def Con from 2.9308e-006 to 2.93083e-006
Heightened Def Con from 2.93093e-006 to 2.93293e-006
Heightened Def Con from 2.93543e-006 to 2.93555e-006
Heightened Def Con from 2.93556e-006 to 2.93557e-006
Heightened Def Con from 2.93557e-006 to 2.93657e-006
Heightened Def Con from 2.93661e-006 to 2.93761e-006
Heightened Def Con from 2.93761e-006 to 2.93764e-006
Heightened Def Con from 2.93798e-006 to 2.93998e-006
Heightened Def Con from 2.94217e-006 to 2.94417e-006
Heightened Def Con from 2.94427e-006 to 2.9443e-006
Heightened Def Con from 2.9446e-006 to 2.9466e-006
Heightened Def Con from 2.95708e-006 to 2.95709e-006
Heightened Def Con from 2.95711e-006 to 2.95724e-006
Heightened Def Con from 2.95724e-006 to 2.95725e-006
Heightened Def Con from 2.95725e-006 to 2.95726e-006
Heightened Def Con from 2.95726e-006 to 2.95751e-006
Heightened Def Con from 2.95788e-006 to 2.9579e-006
Heightened Def Con from 2.9579e-006 to 2.9579e-006
Heightened Def Con from 2.95792e-006 +++++++++++to 2.95892e-006
Heightened Def Con from 2.95892e-006 +++++++++++to 2.95992e-006
Heightened Def Con from 2.95992e-006 +++++++++++to 2.96004e-006
Heightened Def Con from 2.96004e-006 +++++++++++to 2.96017e-006
Heightened Def Con from 2.96017e-006 +++++++++++to 2.96029e-006
Heightened Def Con from 2.96029e-006 +++++++++++to 2.96042e-006
Heightened Def Con from 2.96042e-006 +++++++++++to 2.96142e-006
Heightened Def Con from 2.96142e-006 +++++++++++to 2.96242e-006
Heightened Def Con from 2.96242e-006 +++++++++++to 2.96342e-006
Heightened Def Con from 2.96342e-006 +++++++++++to 2.96442e-006
Heightened Def Con from 2.96442e-006 +++++++++++to 2.96454e-006
Heightened Def Con from 2.96454e-006 +++++++++++to 2.96554e-006
Heightened Def Con from 2.96564e-006 to 2.96576e-006
Heightened Def Con from 2.96601e-006 to 2.96614e-006
Heightened Def Con from 2.96614e-006 to 2.96639e-006
Heightened Def Con from 2.96639e-006 to 2.96642e-006
Heightened Def Con from 2.96648e-006 to 2.96648e-006
Heightened Def Con from 2.96648e-006 to 2.9666e-006
Heightened Def Con from 2.9666e-006 to 2.9666e-006
Heightened Def Con from 2.9666e-006 to 2.96673e-006
Heightened Def Con from 2.96673e-006 to 2.96698e-006
Heightened Def Con from 2.96698e-006 to 2.9671e-006
Heightened Def Con from 2.9671e-006 ++to 2.96723e-006
Heightened Def Con from 2.96767e-006 to 2.96779e-006
Heightened Def Con from 2.96804e-006 to 2.96807e-006
Heightened Def Con from 2.9681e-006 to 2.96812e-006
Heightened Def Con from 2.96815e-006 to 2.96815e-006
Heightened Def Con from 2.96816e-006 to 2.96819e-006
Heightened Def Con from 2.96819e-006 to 2.9682e-006
Heightened Def Con from 2.96823e-006 +++to 2.96826e-006
Heightened Def Con from 2.96829e-006 to 2.96832e-006
Heightened Def Con from 2.96834e-006 to 2.96834e-006
Heightened Def Con from 2.96834e-006 +to 2.96837e-006
Heightened Def Con from 2.96838e-006 to 2.9684e-006
Heightened Def Con from 2.96843e-006 to 2.96844e-006
Heightened Def Con from 2.96844e-006 to 2.96846e-006
Heightened Def Con from 2.96848e-006 to 2.96851e-006
Heightened Def Con from 2.96851e-006 to 2.96853e-006
Heightened Def Con from 2.96853e-006 to 2.96853e-006
Heightened Def Con from 2.96853e-006 to 2.96853e-006
Heightened Def Con from 2.96853e-006 to 2.96853e-006
Heightened Def Con from 2.96853e-006 to 2.96853e-006
Heightened Def Con from 2.96853e-006 to 2.96853e-006
Heightened Def Con from 2.96853e-006 to 2.96853e-006
Heightened Def Con from 2.96853e-006 to 2.96853e-006
Heightened Def Con from 2.96853e-006 to 2.96853e-006
Heightened Def Con from 2.96853e-006 to 2.96853e-006
Heightened Def Con from 2.96853e-006 to 2.96855e-006
Heightened Def Con from 2.96855e-006 to 2.96857e-006
Heightened Def Con from 2.96857e-006 to 2.96857e-006
Heightened Def Con from 2.96857e-006 to 2.96857e-006
Heightened Def Con from 2.96857e-006 to 2.96857e-006
Heightened Def Con from 2.96857e-006 to 2.96858e-006
Heightened Def Con from 2.96858e-006 to 2.96861e-006
Heightened Def Con from 2.96864e-006 to 2.96865e-006
Heightened Def Con from 2.96865e-006 to 2.96865e-006
Heightened Def Con from 2.96865e-006 to 2.96866e-006
Heightened Def Con from 2.96866e-006 to 2.96866e-006
Heightened Def Con from 2.96866e-006 to 2.96866e-006
Heightened Def Con from 2.96866e-006 to 2.96866e-006
Heightened Def Con from 2.96866e-006 to 2.96866e-006
Heightened Def Con from 2.96866e-006 to 2.96867e-006
Heightened Def Con from 2.96867e-006 to 2.96867e-006
Heightened Def Con from 2.96867e-006 to 2.96867e-006
Heightened Def Con from 2.96867e-006 to 2.96868e-006
Heightened Def Con from 2.96868e-006 to 2.96868e-006
Heightened Def Con from 2.96868e-006 ++to 2.96869e-006
Heightened Def Con from 2.96869e-006 to 2.96869e-006
Heightened Def Con from 2.96869e-006 to 2.96869e-006
Heightened Def Con from 2.96869e-006 to 2.96869e-006
Heightened Def Con from 2.96869e-006 +to 2.96869e-006
Heightened Def Con from 2.96869e-006 to 2.96869e-006
Heightened Def Con from 2.96869e-006 to 2.9687e-006
Heightened Def Con from 2.9687e-006 to 2.9687e-006
Heightened Def Con from 2.9687e-006 to 2.9687e-006
Heightened Def Con from 2.9687e-006 to 2.9687e-006
Heightened Def Con from 2.9687e-006 to 2.9687e-006
Heightened Def Con from 2.9687e-006 +to 2.9687e-006
Heightened Def Con from 2.9687e-006 to 2.96871e-006
Heightened Def Con from 2.96871e-006 to 2.96871e-006
Heightened Def Con from 2.96871e-006 to 2.96871e-006
Heightened Def Con from 2.96872e-006 to 2.96872e-006
Heightened Def Con from 2.96872e-006 +to 2.96872e-006
Heightened Def Con from 2.96872e-006 to 2.96872e-006
Heightened Def Con from 2.96872e-006 to 2.96872e-006
Heightened Def Con from 2.96872e-006 +to 2.96872e-006
Heightened Def Con from 2.96872e-006 to 2.96872e-006
Heightened Def Con from 2.96873e-006 to 2.96873e-006
Heightened Def Con from 2.96873e-006 to 2.96873e-006
Heightened Def Con from 2.96873e-006 to 2.96873e-006
Heightened Def Con from 2.96873e-006 to 2.96873e-006
Heightened Def Con from 2.96873e-006 to 2.96873e-006
Heightened Def Con from 2.96873e-006 to 2.96873e-006
Heightened Def Con from 2.96873e-006 +to 2.96873e-006
Heightened Def Con from 2.96873e-006 to 2.96873e-006
Heightened Def Con from 2.96873e-006 to 2.96873e-006
Heightened Def Con from 2.96873e-006 to 2.96873e-006
Heightened Def Con from 2.96873e-006 to 2.96873e-006
Heightened Def Con from 2.96873e-006 to 2.96873e-006
Heightened Def Con from 2.96873e-006 to 2.96873e-006
Heightened Def Con from 2.96873e-006 to 2.96873e-006
Heightened Def Con from 2.96873e-006 to 2.96873e-006
Heightened Def Con from 2.96873e-006 +to 2.96873e-006
Heightened Def Con from 2.96873e-006 +to 2.96873e-006
Heightened Def Con from 2.96873e-006 to 2.96873e-006
Heightened Def Con from 2.96873e-006 to 2.96873e-006
Heightened Def Con from 2.96873e-006 to 2.96873e-006
Heightened Def Con from 2.96873e-006 to 2.96873e-006
Heightened Def Con from 2.96873e-006 to 2.96873e-006
Heightened Def Con from 2.96873e-006 +to 2.96873e-006
Heightened Def Con from 2.96873e-006 to 2.96873e-006
Heightened Def Con from 2.96873e-006 +to 2.96873e-006
Heightened Def Con from 2.96873e-006 to 2.96873e-006
Heightened Def Con from 2.96873e-006 to 2.96873e-006
Heightened Def Con from 2.96873e-006 to 2.96873e-006
Heightened Def Con from 2.96873e-006 to 2.96873e-006
Heightened Def Con from 2.96873e-006 to 2.96873e-006
Heightened Def Con from 2.96873e-006 ++++to 2.96873e-006
Heightened Def Con from 2.96873e-006 to 2.96873e-006
Heightened Def Con from 2.96873e-006 to 2.96873e-006
Heightened Def Con from 2.96873e-006 to 2.96873e-006
Heightened Def Con from 2.96873e-006 to 2.96873e-006
Heightened Def Con from 2.96873e-006 to 2.96873e-006
Heightened Def Con from 2.96873e-006 to 2.96873e-006
Heightened Def Con from 2.96873e-006 to 2.96873e-006
Heightened Def Con from 2.96873e-006 to 2.96873e-006
Heightened Def Con from 2.96873e-006 to 2.96873e-006
Heightened Def Con from 2.96873e-006 to 2.96873e-006
Heightened Def Con from 2.96873e-006 +to 2.96873e-006
Heightened Def Con from 2.96873e-006 to 2.96873e-006
Heightened Def Con from 2.96873e-006 to 2.96873e-006
Heightened Def Con from 2.96873e-006 ++to 2.96873e-006
Heightened Def Con from 2.96873e-006 to 2.96873e-006
Heightened Def Con from 2.96873e-006 to 2.96873e-006
Heightened Def Con from 2.96873e-006 to 2.96873e-006
Heightened Def Con from 2.96873e-006 to 2.96873e-006
Heightened Def Con from 2.96873e-006 to 2.96873e-006
Heightened Def Con from 2.96873e-006 to 2.96873e-006
Heightened Def Con from 2.96873e-006 to 2.96873e-006
Heightened Def Con from 2.96873e-006 +to 2.96873e-006
Heightened Def Con from 2.96873e-006 to 2.96873e-006
Heightened Def Con from 2.96873e-006 to 2.96873e-006
Heightened Def Con from 2.96873e-006 to 2.96873e-006
Heightened Def Con from 2.96873e-006 to 2.96873e-006
Heightened Def Con from 2.96873e-006 to 2.96873e-006
Heightened Def Con from 2.96873e-006 +to 2.96873e-006
Heightened Def Con from 2.96873e-006 +++to 2.96873e-006
Heightened Def Con from 2.96873e-006 to 2.96873e-006
Heightened Def Con from 2.96873e-006 to 2.96873e-006
Heightened Def Con from 2.96873e-006 to 2.96873e-006
Heightened Def Con from 2.96873e-006 to 2.96873e-006
Heightened Def Con from 2.96873e-006 to 2.96873e-006
Heightened Def Con from 2.96873e-006 to 2.96873e-006
Heightened Def Con from 2.96873e-006 to 2.96873e-006
Heightened Def Con from 2.96873e-006 to 2.96873e-006
Heightened Def Con from 2.96873e-006 to 2.96873e-006
Heightened Def Con from 2.96873e-006 to 2.96873e-006
Heightened Def Con from 2.96873e-006 to 2.96873e-006
Heightened Def Con from 2.96873e-006 to 2.96873e-006
Heightened Def Con from 2.96873e-006 to 2.96873e-006
Heightened Def Con from 2.96873e-006 to 2.96873e-006
Heightened Def Con from 2.96873e-006 to 2.96873e-006
Heightened Def Con from 2.96873e-006 to 2.96873e-006
Heightened Def Con from 2.96873e-006 to 2.96873e-006
Heightened Def Con from 2.96873e-006 to 2.96873e-006
Heightened Def Con from 2.96873e-006 to 2.96873e-006
Heightened Def Con from 2.96873e-006 to 2.96873e-006
Heightened Def Con from 2.96873e-006 to 2.96873e-006
Heightened Def Con from 2.96873e-006 to 2.96873e-006
Heightened Def Con from 2.96873e-006 to 2.96873e-006
Heightened Def Con from 2.96873e-006 to 2.96873e-006
Heightened Def Con from 2.96873e-006 to 2.96873e-006
Heightened Def Con from 2.96873e-006 to 2.96873e-006
Heightened Def Con from 2.96873e-006 to 2.96873e-006
Heightened Def Con from 2.96873e-006 to 2.96873e-006
Heightened Def Con from 2.96873e-006 +to 2.96873e-006
Heightened Def Con from 2.96873e-006 to 2.96873e-006
Heightened Def Con from 2.96873e-006 to 2.96873e-006
Heightened Def Con from 2.96873e-006 to 2.96873e-006
Heightened Def Con from 2.96873e-006 to 2.96873e-006
Heightened Def Con from 2.96873e-006 to 2.96873e-006
Heightened Def Con from 2.96873e-006 to 2.96873e-006
Heightened Def Con from 2.96873e-006 to 2.96873e-006
Heightened Def Con from 2.96873e-006 +to 2.96873e-006
Heightened Def Con from 2.96873e-006 to 2.96873e-006
Heightened Def Con from 2.96873e-006 +to 2.96873e-006
Heightened Def Con from 2.96873e-006 +++++++to 2.96873e-006
Heightened Def Con from 2.96873e-006 +++to 2.96873e-006
Heightened Def Con from 2.96873e-006 to 2.96873e-006
Heightened Def Con from 2.96873e-006 to 2.96873e-006
Heightened Def Con from 2.96873e-006 ++++++to 2.96873e-006
Heightened Def Con from 2.96873e-006 to 2.96873e-006
Heightened Def Con from 2.96873e-006 +to 2.96873e-006
Heightened Def Con from 2.96873e-006 +to 2.96873e-006
Heightened Def Con from 2.96873e-006 to 2.96873e-006
Heightened Def Con from 2.96873e-006 to 2.96873e-006
Heightened Def Con from 2.96873e-006 to 2.96873e-006
Heightened Def Con from 2.96873e-006 to 2.96873e-006
Heightened Def Con from 2.96873e-006 to 2.96873e-006
Heightened Def Con from 2.96873e-006 to 2.96873e-006
Heightened Def Con from 2.96873e-006 to 2.96873e-006
Heightened Def Con from 2.96873e-006 to 2.96873e-006
Heightened Def Con from 2.96873e-006 to 2.96873e-006
Heightened Def Con from 2.96873e-006 to 2.96873e-006
Heightened Def Con from 2.96873e-006 to 2.96873e-006
Heightened Def Con from 2.96873e-006 to 2.96873e-006
Heightened Def Con from 2.96873e-006 to 2.96873e-006
Heightened Def Con from 2.96873e-006 to 2.96873e-006
Heightened Def Con from 2.96873e-006 +++to 2.96873e-006
Heightened Def Con from 2.96873e-006 +to 2.96873e-006
Heightened Def Con from 2.96873e-006 +to 2.96873e-006
Heightened Def Con from 2.96873e-006 +++++++to 2.96873e-006
Heightened Def Con from 2.96873e-006 +to 2.96873e-006
Heightened Def Con from 2.96873e-006 ++++to 2.96873e-006
Heightened Def Con from 2.96873e-006 +to 2.96873e-006
Heightened Def Con from 2.96873e-006 to 2.96873e-006
Heightened Def Con from 2.96873e-006 to 2.96873e-006
Heightened Def Con from 2.96873e-006 +++to 2.96873e-006
Heightened Def Con from 2.96873e-006 +++to 2.96873e-006
Heightened Def Con from 2.96873e-006 +to 2.96873e-006
Heightened Def Con from 2.96873e-006 to 2.96873e-006
Heightened Def Con from 2.96873e-006 +to 2.96873e-006
Heightened Def Con from 2.96873e-006 +to 2.96873e-006
Heightened Def Con from 2.96873e-006 to 2.96873e-006
Heightened Def Con from 2.96873e-006 +to 2.96873e-006
Heightened Def Con from 2.96873e-006 to 2.96873e-006
Heightened Def Con from 2.96873e-006 to 2.96873e-006
Heightened Def Con from 2.96873e-006 ++to 2.96873e-006
Heightened Def Con from 2.96873e-006 +to 2.96873e-006
Heightened Def Con from 2.96873e-006 ++++to 2.96873e-006
Heightened Def Con from 2.96873e-006 +++to 2.96873e-006
Heightened Def Con from 2.96873e-006 to 2.96873e-006
Heightened Def Con from 2.96873e-006 to 2.96873e-006
Heightened Def Con from 2.96873e-006 to 2.96873e-006
Heightened Def Con from 2.96873e-006 to 2.96873e-006
Heightened Def Con from 2.96873e-006 ++to 2.96873e-006
Heightened Def Con from 2.96873e-006 to 2.96873e-006
Heightened Def Con from 2.96873e-006 to 2.96873e-006
Heightened Def Con from 2.96873e-006 +to 2.96873e-006
Heightened Def Con from 2.96873e-006 +++to 2.96873e-006
Heightened Def Con from 2.96873e-006 to 2.96873e-006
Heightened Def Con from 2.96873e-006 to 2.96873e-006
Heightened Def Con from 2.96873e-006 to 2.96873e-006
Heightened Def Con from 2.96873e-006 +to 2.96873e-006
Heightened Def Con from 2.96873e-006 ++to 2.96873e-006
Heightened Def Con from 2.96873e-006 to 2.96873e-006
Heightened Def Con from 2.96873e-006 to 2.96873e-006
Heightened Def Con from 2.96873e-006 +to 2.96873e-006
Heightened Def Con from 2.96873e-006 +to 2.96873e-006
Heightened Def Con from 2.96873e-006 to 2.96873e-006
Heightened Def Con from 2.96873e-006 +to 2.96873e-006
Heightened Def Con from 2.96873e-006 to 2.96873e-006
Heightened Def Con from 2.96873e-006 +++++++++++to 2.96873e-006
Heightened Def Con from 2.96873e-006 to 2.96873e-006
Heightened Def Con from 2.96873e-006 to 2.96873e-006
Heightened Def Con from 2.96873e-006 +to 2.96873e-006
Heightened Def Con from 2.96873e-006 to 2.96873e-006
Heightened Def Con from 2.96873e-006 to 2.96873e-006
Heightened Def Con from 2.96873e-006 to 2.96873e-006
Heightened Def Con from 2.96873e-006 +to 2.96873e-006
Heightened Def Con from 2.96873e-006 to 2.96873e-006
Heightened Def Con from 2.96873e-006 to 2.96873e-006
Heightened Def Con from 2.96873e-006 to 2.96873e-006
Heightened Def Con from 2.96873e-006 to 2.96873e-006
Heightened Def Con from 2.96873e-006 to 2.96873e-006
Heightened Def Con from 2.96873e-006 to 2.96873e-006
Heightened Def Con from 2.96873e-006 +to 2.96873e-006
Heightened Def Con from 2.96873e-006 +to 2.96873e-006
Heightened Def Con from 2.96873e-006 +to 2.96873e-006
Heightened Def Con from 2.96873e-006 to 2.96873e-006
Heightened Def Con from 2.96873e-006 to 2.96873e-006
Heightened Def Con from 2.96873e-006 to 2.96873e-006
Heightened Def Con from 2.96873e-006 to 2.96873e-006
Heightened Def Con from 2.96873e-006 to 2.96873e-006
Heightened Def Con from 2.96873e-006 ++to 2.96873e-006
Heightened Def Con from 2.96873e-006 +to 2.96873e-006
Heightened Def Con from 2.96873e-006 +to 2.96873e-006
Heightened Def Con from 2.96873e-006 to 2.96873e-006
Heightened Def Con from 2.96873e-006 to 2.96873e-006
Heightened Def Con from 2.96873e-006 +++to 2.96873e-006
Heightened Def Con from 2.96873e-006 to 2.96873e-006
Heightened Def Con from 2.96873e-006 ++to 2.96873e-006
Heightened Def Con from 2.96873e-006 to 2.96873e-006
Heightened Def Con from 2.96873e-006 +to 2.96873e-006
Heightened Def Con from 2.96873e-006 to 2.96873e-006
Heightened Def Con from 2.96873e-006 to 2.96873e-006
Heightened Def Con from 2.96873e-006 +to 2.96873e-006
Heightened Def Con from 2.96873e-006 ++to 2.96873e-006
Heightened Def Con from 2.96873e-006 +++to 2.96873e-006
Heightened Def Con from 2.96873e-006 +to 2.96873e-006
Heightened Def Con from 2.96873e-006 ++to 2.96873e-006
Heightened Def Con from 2.96873e-006 to 2.96873e-006
Heightened Def Con from 2.96873e-006 to 2.96873e-006
Heightened Def Con from 2.96873e-006 +to 2.96873e-006
Heightened Def Con from 2.96873e-006 to 2.96873e-006
Heightened Def Con from 2.96873e-006 +++++++to 2.96873e-006
Heightened Def Con from 2.96873e-006 to 2.96873e-006
Heightened Def Con from 2.96873e-006 +to 2.96873e-006
Heightened Def Con from 2.96873e-006 +to 2.96873e-006
Heightened Def Con from 2.96873e-006 to 2.96873e-006
Heightened Def Con from 2.96873e-006 ++to 2.96873e-006
Heightened Def Con from 2.96873e-006 +to 2.96873e-006
Heightened Def Con from 2.96873e-006 +to 2.96873e-006
Heightened Def Con from 2.96873e-006 to 2.96873e-006
Heightened Def Con from 2.96873e-006 to 2.96873e-006
Heightened Def Con from 2.96873e-006 +to 2.96873e-006
Heightened Def Con from 2.96873e-006 to 2.96873e-006
Heightened Def Con from 2.96873e-006 to 2.96873e-006
Heightened Def Con from 2.96873e-006 +to 2.96873e-006
Heightened Def Con from 2.96873e-006 to 2.96873e-006
Heightened Def Con from 2.96873e-006 to 2.96873e-006
Heightened Def Con from 2.96873e-006 to 2.96873e-006
Heightened Def Con from 2.96873e-006 ++++++++to 2.96873e-006
Heightened Def Con from 2.96873e-006 to 2.96873e-006
Heightened Def Con from 2.96873e-006 to 2.96873e-006
Heightened Def Con from 2.96873e-006 +++++++++to 2.96873e-006
Heightened Def Con from 2.96873e-006 to 2.96873e-006
Heightened Def Con from 2.96873e-006 to 2.96873e-006
Heightened Def Con from 2.96873e-006 to 2.96873e-006
Heightened Def Con from 2.96873e-006 ++to 2.96873e-006
Heightened Def Con from 2.96873e-006 ++to 2.96873e-006
Heightened Def Con from 2.96873e-006 to 2.96873e-006
Heightened Def Con from 2.96873e-006 to 2.96873e-006
Heightened Def Con from 2.96873e-006 to 2.96873e-006
Heightened Def Con from 2.96873e-006 to 2.96873e-006
Heightened Def Con from 2.96873e-006 to 2.96873e-006
Heightened Def Con from 2.96873e-006 ++to 2.96873e-006
Heightened Def Con from 2.96873e-006 to 2.96873e-006
Heightened Def Con from 2.96873e-006 to 2.96873e-006
Heightened Def Con from 2.96873e-006 to 2.96873e-006
Heightened Def Con from 2.96873e-006 +to 2.96873e-006
Heightened Def Con from 2.96873e-006 +to 2.96873e-006
Heightened Def Con from 2.96873e-006 to 2.96873e-006
Heightened Def Con from 2.96873e-006 +to 2.96873e-006
Heightened Def Con from 2.96873e-006 to 2.96873e-006
Heightened Def Con from 2.96873e-006 to 2.96873e-006
Heightened Def Con from 2.96873e-006 to 2.96873e-006
Heightened Def Con from 2.96873e-006 to 2.96873e-006
Heightened Def Con from 2.96873e-006 +++to 2.96873e-006
Heightened Def Con from 2.96873e-006 to 2.96873e-006
Heightened Def Con from 2.96873e-006 to 2.96873e-006
Heightened Def Con from 2.96873e-006 to 2.96873e-006
Heightened Def Con from 2.96873e-006 ++to 2.96873e-006
Heightened Def Con from 2.96873e-006 to 2.96873e-006
Heightened Def Con from 2.96873e-006 +to 2.96873e-006
Heightened Def Con from 2.96873e-006 ++to 2.96873e-006
Heightened Def Con from 2.96873e-006 to 2.96873e-006
Heightened Def Con from 2.96873e-006 to 2.96873e-006
Heightened Def Con from 2.96873e-006 ++to 2.96873e-006
Heightened Def Con from 2.96873e-006 to 2.96873e-006
Heightened Def Con from 2.96873e-006 +++++++++++to 2.96973e-006
Heightened Def Con from 2.96977e-006 to 2.96978e-006
Heightened Def Con from 2.96978e-006 to 2.96979e-006
Heightened Def Con from 2.96979e-006 to 2.96979e-006
Heightened Def Con from 2.96979e-006 +++to 2.96979e-006
Heightened Def Con from 2.96979e-006 to 2.97079e-006
Heightened Def Con from 2.97079e-006 +++to 2.97079e-006
Heightened Def Con from 2.97079e-006 to 2.97079e-006
Heightened Def Con from 2.97079e-006 to 2.97179e-006
Heightened Def Con from 2.97179e-006 to 2.97179e-006
Heightened Def Con from 2.9718e-006 to 2.9718e-006
Heightened Def Con from 2.9718e-006 to 2.9718e-006
Heightened Def Con from 2.97181e-006 to 2.97181e-006
Heightened Def Con from 2.97181e-006 to 2.97181e-006
Heightened Def Con from 2.97181e-006 +to 2.97194e-006
Heightened Def Con from 2.97211e-006 to 2.97211e-006
Heightened Def Con from 2.97211e-006 to 2.97211e-006
Heightened Def Con from 2.97211e-006 to 2.97211e-006
Heightened Def Con from 2.97211e-006 to 2.97311e-006
Heightened Def Con from 2.97311e-006 to 2.97312e-006
Heightened Def Con from 2.97312e-006 to 2.97312e-006
Heightened Def Con from 2.97312e-006 +to 2.97312e-006
Heightened Def Con from 2.97312e-006 to 2.97312e-006
Heightened Def Con from 2.97313e-006 +to 2.97313e-006
Heightened Def Con from 2.97313e-006 to 2.97313e-006
Heightened Def Con from 2.97313e-006 +to 2.97313e-006
Heightened Def Con from 2.97313e-006 to 2.97313e-006
Heightened Def Con from 2.97315e-006 +to 2.97316e-006
Heightened Def Con from 2.97316e-006 +to 2.97316e-006
Heightened Def Con from 2.97316e-006 to 2.97316e-006
Heightened Def Con from 2.97316e-006 +to 2.97316e-006
Heightened Def Con from 2.97316e-006 +to 2.97316e-006
Heightened Def Con from 2.97316e-006 to 2.97316e-006
Heightened Def Con from 2.97316e-006 to 2.97316e-006
Heightened Def Con from 2.97316e-006 to 2.97316e-006
Heightened Def Con from 2.97316e-006 to 2.97316e-006
Heightened Def Con from 2.97316e-006 to 2.97316e-006
Heightened Def Con from 2.97316e-006 to 2.97316e-006
Heightened Def Con from 2.97316e-006 to 2.97316e-006
Heightened Def Con from 2.97316e-006 +++to 2.97316e-006
Heightened Def Con from 2.97316e-006 to 2.97316e-006
Heightened Def Con from 2.97316e-006 +to 2.97318e-006
Heightened Def Con from 2.97318e-006 to 2.97318e-006
Heightened Def Con from 2.97318e-006 to 2.97318e-006
Heightened Def Con from 2.97318e-006 +to 2.97318e-006
Heightened Def Con from 2.97318e-006 to 2.97318e-006
Heightened Def Con from 2.97318e-006 to 2.97419e-006
Heightened Def Con from 2.97419e-006 to 2.97419e-006
Heightened Def Con from 2.97419e-006 to 2.97419e-006
Heightened Def Con from 2.97419e-006 to 2.97419e-006
Heightened Def Con from 2.97419e-006 to 2.97419e-006
Heightened Def Con from 2.97419e-006 ++to 2.97419e-006
Heightened Def Con from 2.97419e-006 to 2.9742e-006
Heightened Def Con from 2.9742e-006 to 2.9742e-006
Heightened Def Con from 2.9742e-006 ++to 2.9742e-006
Heightened Def Con from 2.9742e-006 to 2.9742e-006
Heightened Def Con from 2.9742e-006 +to 2.9742e-006
Heightened Def Con from 2.9742e-006 +to 2.9742e-006
Heightened Def Con from 2.9742e-006 to 2.9742e-006
Heightened Def Con from 2.9742e-006 +to 2.9742e-006
Heightened Def Con from 2.9742e-006 to 2.9742e-006
Heightened Def Con from 2.9742e-006 to 2.9742e-006
Heightened Def Con from 2.9742e-006 to 2.9742e-006
Heightened Def Con from 2.9742e-006 to 2.9742e-006
Heightened Def Con from 2.9742e-006 to 2.9742e-006
Heightened Def Con from 2.9742e-006 to 2.9742e-006
Heightened Def Con from 2.9742e-006 to 2.9742e-006
Heightened Def Con from 2.9742e-006 to 2.9742e-006
Heightened Def Con from 2.9742e-006 to 2.9742e-006
Heightened Def Con from 2.9742e-006 +to 2.9742e-006
Heightened Def Con from 2.9742e-006 to 2.9742e-006
Heightened Def Con from 2.9742e-006 +to 2.9742e-006
Heightened Def Con from 2.9742e-006 to 2.9742e-006
Heightened Def Con from 2.9742e-006 to 2.9742e-006
Heightened Def Con from 2.9742e-006 to 2.9742e-006
Heightened Def Con from 2.9742e-006 to 2.9742e-006
Heightened Def Con from 2.9742e-006 to 2.9742e-006
Heightened Def Con from 2.9742e-006 to 2.9742e-006
Heightened Def Con from 2.9742e-006 to 2.9742e-006
Heightened Def Con from 2.9742e-006 to 2.9742e-006
Heightened Def Con from 2.9742e-006 to 2.9742e-006
Heightened Def Con from 2.9742e-006 to 2.9742e-006
Heightened Def Con from 2.9742e-006 +to 2.9742e-006
Heightened Def Con from 2.9742e-006 to 2.9742e-006
Heightened Def Con from 2.9742e-006 to 2.9742e-006
Heightened Def Con from 2.9742e-006 to 2.9742e-006
Heightened Def Con from 2.9742e-006 to 2.9742e-006
Heightened Def Con from 2.9742e-006 to 2.9742e-006
Heightened Def Con from 2.9742e-006 to 2.9742e-006
Heightened Def Con from 2.9742e-006 ++to 2.9742e-006
Heightened Def Con from 2.9742e-006 to 2.9742e-006
Heightened Def Con from 2.9742e-006 +to 2.9742e-006
Heightened Def Con from 2.9742e-006 to 2.9742e-006
Heightened Def Con from 2.9742e-006 to 2.9742e-006
Heightened Def Con from 2.9742e-006 to 2.9742e-006
Heightened Def Con from 2.9742e-006 to 2.9742e-006
Heightened Def Con from 2.9742e-006 +to 2.9742e-006
Heightened Def Con from 2.9742e-006 to 2.9742e-006
Heightened Def Con from 2.9742e-006 +to 2.9742e-006
Heightened Def Con from 2.9742e-006 to 2.9742e-006
Heightened Def Con from 2.9742e-006 to 2.9742e-006
Heightened Def Con from 2.9742e-006 +to 2.9742e-006
Heightened Def Con from 2.9742e-006 +to 2.9742e-006
Heightened Def Con from 2.9742e-006 to 2.9742e-006
Heightened Def Con from 2.9742e-006 +to 2.9742e-006
Heightened Def Con from 2.9742e-006 to 2.9742e-006
Heightened Def Con from 2.9742e-006 ++to 2.9742e-006
Heightened Def Con from 2.9742e-006 to 2.9742e-006
Heightened Def Con from 2.9742e-006 +to 2.9742e-006
Heightened Def Con from 2.9742e-006 to 2.9742e-006
Heightened Def Con from 2.9742e-006 to 2.9742e-006
Heightened Def Con from 2.9742e-006 +to 2.9742e-006
Heightened Def Con from 2.9742e-006 to 2.9742e-006
Heightened Def Con from 2.9742e-006 to 2.9742e-006
Heightened Def Con from 2.9742e-006 to 2.9742e-006
Heightened Def Con from 2.9742e-006 to 2.9742e-006
Heightened Def Con from 2.9742e-006 to 2.9742e-006
Heightened Def Con from 2.9742e-006 to 2.97421e-006
Heightened Def Con from 2.97421e-006 +to 2.97421e-006
Heightened Def Con from 2.97421e-006 +to 2.97621e-006
Heightened Def Con from 2.97622e-006 to 2.97622e-006
Heightened Def Con from 2.97622e-006 to 2.97622e-006
Heightened Def Con from 2.97622e-006 to 2.97622e-006
Heightened Def Con from 2.97622e-006 +to 2.97722e-006
Heightened Def Con from 2.97723e-006 to 2.97723e-006
Heightened Def Con from 2.97723e-006 to 2.97723e-006
Heightened Def Con from 2.97723e-006 ++to 2.97723e-006
Heightened Def Con from 2.97723e-006 to 2.97723e-006
Heightened Def Con from 2.97723e-006 to 2.97723e-006
Heightened Def Con from 2.97723e-006 to 2.97723e-006
Heightened Def Con from 2.97723e-006 to 2.97723e-006
Heightened Def Con from 2.97723e-006 to 2.97723e-006
Heightened Def Con from 2.97723e-006 to 2.97723e-006
Heightened Def Con from 2.97723e-006 to 2.97723e-006
Heightened Def Con from 2.97723e-006 to 2.97723e-006
Heightened Def Con from 2.97723e-006 to 2.97723e-006
Heightened Def Con from 2.97723e-006 to 2.97723e-006
Heightened Def Con from 2.97723e-006 +to 2.97723e-006
Heightened Def Con from 2.97723e-006 to 2.97723e-006
Heightened Def Con from 2.97723e-006 to 2.97723e-006
Heightened Def Con from 2.97723e-006 to 2.97723e-006
Heightened Def Con from 2.97723e-006 to 2.97723e-006
Heightened Def Con from 2.97723e-006 to 2.97723e-006
Heightened Def Con from 2.97723e-006 to 2.97723e-006
Heightened Def Con from 2.97723e-006 to 2.97723e-006
Heightened Def Con from 2.97723e-006 to 2.97723e-006
Heightened Def Con from 2.97723e-006 +to 2.97723e-006
Heightened Def Con from 2.97723e-006 +to 2.97723e-006
Heightened Def Con from 2.97723e-006 to 2.97723e-006
Heightened Def Con from 2.97723e-006 +++++++++++to 2.97823e-006
Heightened Def Con from 2.979e-006 to 2.979e-006
Heightened Def Con from 2.979e-006 +to 2.979e-006
Heightened Def Con from 2.979e-006 ++to 2.97901e-006
Heightened Def Con from 2.97901e-006 to 2.97901e-006
Heightened Def Con from 2.97901e-006 to 2.97901e-006
Heightened Def Con from 2.97901e-006 +to 2.97903e-006
Heightened Def Con from 2.97903e-006 to 2.97903e-006
Heightened Def Con from 2.97903e-006 to 2.97904e-006
Heightened Def Con from 2.97904e-006 ++to 2.97904e-006
Heightened Def Con from 2.97904e-006 to 2.97904e-006
Heightened Def Con from 2.97904e-006 +to 2.97904e-006
Heightened Def Con from 2.97904e-006 to 2.97906e-006
Heightened Def Con from 2.97906e-006 to 2.97906e-006
Heightened Def Con from 2.97906e-006 to 2.97906e-006
Heightened Def Con from 2.97906e-006 to 2.97906e-006
Heightened Def Con from 2.97906e-006 +++to 2.97906e-006
Heightened Def Con from 2.97906e-006 to 2.97906e-006
Heightened Def Con from 2.97906e-006 +to 2.97906e-006
Heightened Def Con from 2.97906e-006 to 2.97906e-006
Heightened Def Con from 2.97906e-006 to 2.97906e-006
Heightened Def Con from 2.97906e-006 ++to 2.97906e-006
Heightened Def Con from 2.97906e-006 +to 2.97906e-006
Heightened Def Con from 2.97906e-006 to 2.97906e-006
Heightened Def Con from 2.97907e-006 to 2.97907e-006
Heightened Def Con from 2.97907e-006 ++to 2.9791e-006
Heightened Def Con from 2.9791e-006 ++to 2.9791e-006
Heightened Def Con from 2.97911e-006 to 2.97911e-006
Heightened Def Con from 2.97911e-006 to 2.97911e-006
Heightened Def Con from 2.97911e-006 to 2.97911e-006
Heightened Def Con from 2.97911e-006 to 2.97911e-006
Heightened Def Con from 2.97911e-006 to 2.97912e-006
Heightened Def Con from 2.97912e-006 to 2.97912e-006
Heightened Def Con from 2.97912e-006 to 2.97912e-006
Heightened Def Con from 2.97912e-006 to 2.97912e-006
Heightened Def Con from 2.97912e-006 to 2.97912e-006
Heightened Def Con from 2.97912e-006 to 2.97913e-006
Heightened Def Con from 2.97913e-006 +to 2.97913e-006
Heightened Def Con from 2.97913e-006 to 2.97913e-006
Heightened Def Con from 2.97913e-006 to 2.97913e-006
Heightened Def Con from 2.97913e-006 to 2.97913e-006
Heightened Def Con from 2.97913e-006 to 2.97913e-006
Heightened Def Con from 2.97913e-006 to 2.97913e-006
Heightened Def Con from 2.97913e-006 to 2.97913e-006
Heightened Def Con from 2.97913e-006 to 2.97913e-006
Heightened Def Con from 2.97913e-006 to 2.97913e-006
Heightened Def Con from 2.97913e-006 to 2.97913e-006
Heightened Def Con from 2.97913e-006 to 2.97913e-006
Heightened Def Con from 2.97913e-006 to 2.97913e-006
Heightened Def Con from 2.97913e-006 to 2.97914e-006
Heightened Def Con from 2.97914e-006 to 2.97914e-006
Heightened Def Con from 2.97914e-006 to 2.97914e-006
Heightened Def Con from 2.97914e-006 +to 2.97914e-006
Heightened Def Con from 2.97914e-006 to 2.97914e-006
Heightened Def Con from 2.97914e-006 to 2.97915e-006
Heightened Def Con from 2.97915e-006 ++++++to 2.97915e-006
Heightened Def Con from 2.97915e-006 to 2.97915e-006
Heightened Def Con from 2.97915e-006 ++++++++to 2.97915e-006
Heightened Def Con from 2.97915e-006 ++++++to 2.97915e-006
Heightened Def Con from 2.97915e-006 +to 2.97915e-006
Heightened Def Con from 2.97915e-006 +to 2.97915e-006
Heightened Def Con from 2.97915e-006 +to 2.97915e-006
Heightened Def Con from 2.97915e-006 +++++to 2.97915e-006
Heightened Def Con from 2.97915e-006 +++to 2.97915e-006
Heightened Def Con from 2.97915e-006 +++to 2.97915e-006
Heightened Def Con from 2.97915e-006 ++to 2.97915e-006
Heightened Def Con from 2.97915e-006 +++to 2.97915e-006
Heightened Def Con from 2.97915e-006 +++++to 2.97915e-006
Heightened Def Con from 2.97915e-006 +to 2.97915e-006
Heightened Def Con from 2.97915e-006 +++++++++++to 2.97927e-006
Heightened Def Con from 2.97927e-006 to 2.97927e-006
Heightened Def Con from 2.97927e-006 to 2.97927e-006
Heightened Def Con from 2.97927e-006 to 2.97927e-006
Heightened Def Con from 2.97927e-006 to 2.97927e-006
Heightened Def Con from 2.97927e-006 to 2.97927e-006
Heightened Def Con from 2.97927e-006 ++to 2.97927e-006
Heightened Def Con from 2.97927e-006 to 2.97927e-006
Heightened Def Con from 2.97927e-006 +to 2.97927e-006
Heightened Def Con from 2.97927e-006 to 2.97927e-006
Heightened Def Con from 2.97927e-006 to 2.97927e-006
Heightened Def Con from 2.97927e-006 to 2.97927e-006
Heightened Def Con from 2.97927e-006 to 2.97928e-006
Heightened Def Con from 2.97928e-006 +to 2.97928e-006
Heightened Def Con from 2.97928e-006 ++to 2.97928e-006
Heightened Def Con from 2.97928e-006 +to 2.97928e-006
Heightened Def Con from 2.97928e-006 to 2.97928e-006
Heightened Def Con from 2.97928e-006 ++to 2.97928e-006
Heightened Def Con from 2.97928e-006 to 2.97928e-006
Heightened Def Con from 2.97928e-006 ++to 2.97928e-006
Heightened Def Con from 2.97928e-006 +++++++to 2.97928e-006
Heightened Def Con from 2.97928e-006 to 2.97928e-006
Heightened Def Con from 2.97928e-006 ++to 2.97928e-006
Heightened Def Con from 2.97928e-006 to 2.97928e-006
Heightened Def Con from 2.97928e-006 +++to 2.97928e-006
Heightened Def Con from 2.97928e-006 to 2.97928e-006
Heightened Def Con from 2.97928e-006 +to 2.97928e-006
Heightened Def Con from 2.97928e-006 to 2.97928e-006
Heightened Def Con from 2.97928e-006 to 2.97928e-006
Heightened Def Con from 2.97928e-006 to 2.97928e-006
Heightened Def Con from 2.97928e-006 +++to 2.97928e-006
Heightened Def Con from 2.97928e-006 ++++++to 2.97928e-006
Heightened Def Con from 2.97928e-006 +++to 2.97928e-006
Heightened Def Con from 2.97928e-006 to 2.97928e-006
Heightened Def Con from 2.97928e-006 +to 2.97928e-006
Heightened Def Con from 2.97928e-006 +++to 2.97928e-006
Heightened Def Con from 2.97928e-006 +to 2.97928e-006
Heightened Def Con from 2.97928e-006 +to 2.97928e-006
Heightened Def Con from 2.97928e-006 ++++to 2.97928e-006
Heightened Def Con from 2.97928e-006 to 2.97928e-006
Heightened Def Con from 2.97928e-006 ++++++to 2.97928e-006
Heightened Def Con from 2.97928e-006 to 2.97928e-006
Heightened Def Con from 2.97928e-006 to 2.97928e-006
Heightened Def Con from 2.97928e-006 to 2.97928e-006
Heightened Def Con from 2.97928e-006 to 2.97928e-006
Heightened Def Con from 2.97928e-006 +to 2.97928e-006
Heightened Def Con from 2.97928e-006 to 2.97928e-006
Heightened Def Con from 2.97928e-006 to 2.97928e-006
Heightened Def Con from 2.97928e-006 +to 2.97928e-006
Heightened Def Con from 2.97928e-006 ++to 2.97928e-006
Heightened Def Con from 2.97928e-006 to 2.97928e-006
Heightened Def Con from 2.97928e-006 to 2.97928e-006
Heightened Def Con from 2.97928e-006 to 2.97928e-006
Heightened Def Con from 2.97928e-006 +to 2.97928e-006
Heightened Def Con from 2.97928e-006 to 2.97928e-006
Heightened Def Con from 2.97928e-006 to 2.97928e-006
Heightened Def Con from 2.97928e-006 +to 2.97928e-006
Heightened Def Con from 2.97928e-006 to 2.97928e-006
Heightened Def Con from 2.97928e-006 to 2.97928e-006
Heightened Def Con from 2.97928e-006 ++to 2.97928e-006
Heightened Def Con from 2.97928e-006 to 2.97928e-006
Heightened Def Con from 2.97928e-006 to 2.97928e-006
Heightened Def Con from 2.97928e-006 to 2.97928e-006
Heightened Def Con from 2.97928e-006 to 2.97928e-006
Heightened Def Con from 2.97928e-006 to 2.97928e-006
Heightened Def Con from 2.97928e-006 to 2.97928e-006
Heightened Def Con from 2.97928e-006 +to 2.97928e-006
Heightened Def Con from 2.97928e-006 to 2.97928e-006
Heightened Def Con from 2.97928e-006 +to 2.97928e-006
Heightened Def Con from 2.97928e-006 to 2.97928e-006
Heightened Def Con from 2.97928e-006 +++++++++++to 2.97929e-006
Heightened Def Con from 2.97929e-006 +to 2.97929e-006
Heightened Def Con from 2.97929e-006 +to 2.97929e-006
Heightened Def Con from 2.97929e-006 +to 2.97929e-006
Heightened Def Con from 2.97929e-006 +++to 2.97929e-006
Heightened Def Con from 2.97929e-006 to 2.97929e-006
Heightened Def Con from 2.97929e-006 to 2.97929e-006
Heightened Def Con from 2.97929e-006 to 2.97929e-006
Heightened Def Con from 2.97929e-006 to 2.97929e-006
Heightened Def Con from 2.97929e-006 to 2.97929e-006
Heightened Def Con from 2.97929e-006 +to 2.97929e-006
Heightened Def Con from 2.97929e-006 to 2.97929e-006
Heightened Def Con from 2.97929e-006 +to 2.97929e-006
Heightened Def Con from 2.97929e-006 +to 2.97929e-006
Heightened Def Con from 2.97929e-006 to 2.97929e-006
Heightened Def Con from 2.97929e-006 +to 2.97929e-006
Heightened Def Con from 2.9793e-006 +++to 2.9793e-006
Heightened Def Con from 2.9793e-006 to 2.9793e-006
Heightened Def Con from 2.9793e-006 to 2.9793e-006
Heightened Def Con from 2.9793e-006 ++to 2.9793e-006
Heightened Def Con from 2.9793e-006 to 2.9793e-006
Heightened Def Con from 2.9793e-006 ++++to 2.9793e-006
Heightened Def Con from 2.9793e-006 +to 2.9793e-006
Heightened Def Con from 2.9793e-006 to 2.9793e-006
Heightened Def Con from 2.9793e-006 +to 2.9793e-006
Heightened Def Con from 2.9793e-006 +++++to 2.9793e-006
Heightened Def Con from 2.9793e-006 to 2.9793e-006
Heightened Def Con from 2.9793e-006 +++to 2.9793e-006
Heightened Def Con from 2.9793e-006 to 2.9793e-006
Heightened Def Con from 2.9793e-006 to 2.9793e-006
Heightened Def Con from 2.9793e-006 to 2.9793e-006
Heightened Def Con from 2.9793e-006 +++++++++++to 2.9803e-006
Heightened Def Con from 2.9803e-006 to 2.9813e-006
Heightened Def Con from 2.9813e-006 to 2.9813e-006
Heightened Def Con from 2.9813e-006 +to 2.9813e-006
Heightened Def Con from 2.9813e-006 to 2.9813e-006
Heightened Def Con from 2.9813e-006 +++to 2.9813e-006
Heightened Def Con from 2.9813e-006 to 2.9813e-006
Heightened Def Con from 2.9813e-006 to 2.9813e-006
Heightened Def Con from 2.9813e-006 to 2.9813e-006
Heightened Def Con from 2.9813e-006 +to 2.9813e-006
Heightened Def Con from 2.9813e-006 +to 2.98131e-006
Heightened Def Con from 2.98131e-006 ++++++++to 2.98131e-006
Heightened Def Con from 2.98131e-006 ++++++to 2.98231e-006
Heightened Def Con from 2.98231e-006 to 2.98331e-006
Heightened Def Con from 2.98332e-006 to 2.98332e-006
Heightened Def Con from 2.98332e-006 +++to 2.98432e-006
Heightened Def Con from 2.98432e-006 to 2.98445e-006
Heightened Def Con from 2.98445e-006 +to 2.98445e-006
Heightened Def Con from 2.98445e-006 to 2.98445e-006
Heightened Def Con from 2.98445e-006 ++++to 2.98546e-006
Heightened Def Con from 2.98546e-006 ++++++to 2.98546e-006
Heightened Def Con from 2.98546e-006 to 2.98548e-006
Heightened Def Con from 2.98548e-006 to 2.98548e-006
Heightened Def Con from 2.98548e-006 to 2.98548e-006
Heightened Def Con from 2.98548e-006 ++to 2.98561e-006
Heightened Def Con from 2.98561e-006 +to 2.98661e-006
Heightened Def Con from 2.98661e-006 to 2.98661e-006
Heightened Def Con from 2.98661e-006 to 2.98661e-006
Heightened Def Con from 2.98661e-006 ++to 2.98662e-006
Heightened Def Con from 2.98662e-006 ++to 2.98662e-006
Heightened Def Con from 2.98662e-006 to 2.98662e-006
Heightened Def Con from 2.98662e-006 to 2.98662e-006
Heightened Def Con from 2.98662e-006 +to 2.98662e-006
Heightened Def Con from 2.98662e-006 ++to 2.98762e-006
Heightened Def Con from 2.98762e-006 to 2.98762e-006
Heightened Def Con from 2.98762e-006 to 2.98862e-006
Heightened Def Con from 2.98862e-006 to 2.98862e-006
Heightened Def Con from 2.98862e-006 to 2.98863e-006
Heightened Def Con from 2.98863e-006 +to 2.98863e-006
Heightened Def Con from 2.98863e-006 to 2.98964e-006
Heightened Def Con from 2.98964e-006 to 2.98965e-006
Heightened Def Con from 2.98965e-006 to 2.98965e-006
Heightened Def Con from 2.98965e-006 to 2.98966e-006
Heightened Def Con from 2.98966e-006 to 2.98991e-006
Heightened Def Con from 2.98991e-006 to 2.98991e-006
Heightened Def Con from 2.98991e-006 to 2.98991e-006
Heightened Def Con from 2.98991e-006 to 2.99004e-006
Heightened Def Con from 2.99004e-006 to 2.99007e-006
Heightened Def Con from 2.9901e-006 +to 2.99012e-006
Heightened Def Con from 2.99012e-006 to 2.99012e-006
Heightened Def Con from 2.99012e-006 to 2.99012e-006
Heightened Def Con from 2.99012e-006 to 2.99012e-006
Heightened Def Con from 2.99012e-006 to 2.99012e-006
Heightened Def Con from 2.99012e-006 +to 2.99112e-006
Heightened Def Con from 2.99112e-006 to 2.99112e-006
Heightened Def Con from 2.99112e-006 to 2.99112e-006
Heightened Def Con from 2.99112e-006 +to 2.99126e-006
Heightened Def Con from 2.99126e-006 to 2.99126e-006
Heightened Def Con from 2.99126e-006 ++to 2.99126e-006
Heightened Def Con from 2.99126e-006 to 2.99126e-006
Heightened Def Con from 2.99126e-006 to 2.9914e-006
Heightened Def Con from 2.9914e-006 to 2.9914e-006
Heightened Def Con from 2.9914e-006 to 2.9914e-006
Heightened Def Con from 2.9914e-006 to 2.99141e-006
Heightened Def Con from 2.99141e-006 ++to 2.99241e-006
Heightened Def Con from 2.99241e-006 to 2.99242e-006
Heightened Def Con from 2.99242e-006 ++to 2.99242e-006
Heightened Def Con from 2.99242e-006 to 2.99244e-006
Heightened Def Con from 2.99244e-006 +to 2.99344e-006
Heightened Def Con from 2.99344e-006 to 2.99345e-006
Heightened Def Con from 2.99345e-006 to 2.99445e-006
Heightened Def Con from 2.99445e-006 +to 2.99445e-006
Heightened Def Con from 2.99445e-006 +to 2.99458e-006
Heightened Def Con from 2.99458e-006 to 2.9947e-006
Heightened Def Con from 2.99471e-006 to 2.99471e-006
Heightened Def Con from 2.99471e-006 to 2.99471e-006
Heightened Def Con from 2.99471e-006 ++to 2.99472e-006
Heightened Def Con from 2.99475e-006 +to 2.99475e-006
Heightened Def Con from 2.99475e-006 to 2.99475e-006
Heightened Def Con from 2.99475e-006 +to 2.99477e-006
Heightened Def Con from 2.99477e-006 to 2.99477e-006
Heightened Def Con from 2.99477e-006 to 2.9948e-006
Heightened Def Con from 2.9948e-006 to 2.9948e-006
Heightened Def Con from 2.9948e-006 to 2.99593e-006
Heightened Def Con from 2.99593e-006 to 2.99693e-006
Heightened Def Con from 2.99695e-006 to 2.99695e-006
Heightened Def Con from 2.99695e-006 to 2.99697e-006
Heightened Def Con from 2.99697e-006 to 2.99698e-006
Heightened Def Con from 2.99698e-006 to 2.99699e-006
Heightened Def Con from 2.99699e-006 to 2.99699e-006
Heightened Def Con from 2.99699e-006 to 2.99699e-006
Heightened Def Con from 2.99699e-006 +to 2.99711e-006
Heightened Def Con from 2.99711e-006 to 2.99711e-006
Heightened Def Con from 2.99711e-006 +to 2.99711e-006
Heightened Def Con from 2.99711e-006 to 2.99711e-006
Heightened Def Con from 2.99711e-006 +to 2.99911e-006
Heightened Def Con from 2.99936e-006 to 3.00036e-006
Heightened Def Con from 3.00036e-006 to 3.00061e-006
Heightened Def Con from 3.00094e-006 to 3.00195e-006
Heightened Def Con from 3.00195e-006 to 3.00207e-006
Heightened Def Con from 3.00207e-006 to 3.0022e-006
Heightened Def Con from 3.0022e-006 to 3.0022e-006
Heightened Def Con from 3.0022e-006 to 3.00222e-006
Heightened Def Con from 3.00222e-006 to 3.00322e-006
Heightened Def Con from 3.00322e-006 to 3.00336e-006
Heightened Def Con from 3.00336e-006 to 3.00536e-006
Heightened Def Con from 3.00537e-006 to 3.00737e-006
Heightened Def Con from 3.00913e-006 to 3.01025e-006
Heightened Def Con from 3.01826e-006 to 3.01938e-006
Heightened Def Con from 3.02018e-006 to 3.02119e-006
Heightened Def Con from 3.02261e-006 to 3.02275e-006
Heightened Def Con from 3.02278e-006 to 3.02303e-006
Heightened Def Con from 3.02316e-006 to 3.02516e-006
Heightened Def Con from 3.05141e-006 to 3.05166e-006
Heightened Def Con from 3.05192e-006 to 3.05206e-006
Heightened Def Con from 3.05209e-006 to 3.05212e-006
Heightened Def Con from 3.05212e-006 to 3.05212e-006
Heightened Def Con from 3.05212e-006 to 3.05212e-006
Heightened Def Con from 3.05213e-006 to 3.05214e-006
Heightened Def Con from 3.05214e-006 to 3.05215e-006
Heightened Def Con from 3.05215e-006 to 3.05215e-006
Heightened Def Con from 3.05215e-006 to 3.05215e-006
Heightened Def Con from 3.05215e-006 to 3.05215e-006
Heightened Def Con from 3.05215e-006 to 3.05215e-006
Heightened Def Con from 3.05215e-006 to 3.05215e-006
Heightened Def Con from 3.05215e-006 +++++to 3.05315e-006
Heightened Def Con from 3.05315e-006 ++++++to 3.05315e-006
Heightened Def Con from 3.05315e-006 +to 3.05317e-006
Heightened Def Con from 3.05317e-006 to 3.05317e-006
Heightened Def Con from 3.05317e-006 +to 3.05317e-006
Heightened Def Con from 3.05317e-006 ++to 3.05417e-006
Heightened Def Con from 3.05442e-006 ++++to 3.05442e-006
Heightened Def Con from 3.05442e-006 +++to 3.05442e-006
Heightened Def Con from 3.05442e-006 +to 3.05442e-006
Heightened Def Con from 3.05442e-006 to 3.05542e-006
Heightened Def Con from 3.05542e-006 +++++to 3.05544e-006
Heightened Def Con from 3.05544e-006 +++to 3.05544e-006
Heightened Def Con from 3.05544e-006 ++to 3.05644e-006
Heightened Def Con from 3.05644e-006 +to 3.05644e-006
Heightened Def Con from 3.05644e-006 +++to 3.05644e-006
Heightened Def Con from 3.05644e-006 to 3.05644e-006
Heightened Def Con from 3.05644e-006 +to 3.05644e-006
Heightened Def Con from 3.05644e-006 ++to 3.05744e-006
Heightened Def Con from 3.05744e-006 to 3.05744e-006
Heightened Def Con from 3.05744e-006 ++to 3.05744e-006
Heightened Def Con from 3.05744e-006 +++to 3.05756e-006
Heightened Def Con from 3.05756e-006 +to 3.05756e-006
Heightened Def Con from 3.05756e-006 +++++to 3.05756e-006
Heightened Def Con from 3.05756e-006 to 3.05756e-006
Heightened Def Con from 3.05756e-006 ++++to 3.05856e-006
Heightened Def Con from 3.05856e-006 to 3.05957e-006
Heightened Def Con from 3.05957e-006 ++to 3.06057e-006
Heightened Def Con from 3.06057e-006 ++to 3.06069e-006
Heightened Def Con from 3.06069e-006 to 3.06069e-006
Heightened Def Con from 3.06069e-006 ++to 3.06082e-006
Heightened Def Con from 3.06082e-006 +to 3.06082e-006
Heightened Def Con from 3.06082e-006 to 3.06082e-006
Heightened Def Con from 3.06082e-006 ++to 3.06082e-006
Heightened Def Con from 3.06082e-006 ++++++to 3.06082e-006
Heightened Def Con from 3.06082e-006 +to 3.06084e-006
Heightened Def Con from 3.06087e-006 to 3.06087e-006
Heightened Def Con from 3.06087e-006 to 3.06087e-006
Heightened Def Con from 3.06087e-006 ++to 3.06099e-006
Heightened Def Con from 3.06099e-006 +to 3.06099e-006
Heightened Def Con from 3.06099e-006 to 3.06099e-006
Heightened Def Con from 3.06099e-006 to 3.06099e-006
Heightened Def Con from 3.06099e-006 +to 3.06099e-006
Heightened Def Con from 3.06099e-006 ++to 3.06112e-006
Heightened Def Con from 3.06112e-006 to 3.06112e-006
Heightened Def Con from 3.06112e-006 to 3.06112e-006
Heightened Def Con from 3.06112e-006 +to 3.06112e-006
Heightened Def Con from 3.06112e-006 ++to 3.06113e-006
Heightened Def Con from 3.06113e-006 to 3.06113e-006
Heightened Def Con from 3.06113e-006 to 3.06113e-006
Heightened Def Con from 3.06113e-006 +to 3.06113e-006
Heightened Def Con from 3.06113e-006 to 3.06115e-006
Heightened Def Con from 3.06115e-006 to 3.06116e-006
Heightened Def Con from 3.06116e-006 ++++to 3.06116e-006
Heightened Def Con from 3.06116e-006 +to 3.06116e-006
Heightened Def Con from 3.06116e-006 +++++to 3.06216e-006
Heightened Def Con from 3.06216e-006 +to 3.06216e-006
Heightened Def Con from 3.06216e-006 to 3.06216e-006
Heightened Def Con from 3.06216e-006 to 3.06216e-006
Heightened Def Con from 3.06216e-006 to 3.06216e-006
Heightened Def Con from 3.06216e-006 +++to 3.06216e-006
Heightened Def Con from 3.06216e-006 to 3.06216e-006
Heightened Def Con from 3.06216e-006 to 3.06216e-006
Heightened Def Con from 3.06216e-006 to 3.06216e-006
Heightened Def Con from 3.06216e-006 to 3.06216e-006
Heightened Def Con from 3.06216e-006 +++to 3.06218e-006
Heightened Def Con from 3.06218e-006 +to 3.06218e-006
Heightened Def Con from 3.06218e-006 to 3.06218e-006
Heightened Def Con from 3.06218e-006 +to 3.06218e-006
Heightened Def Con from 3.06218e-006 +to 3.06218e-006
Heightened Def Con from 3.06218e-006 to 3.06218e-006
Heightened Def Con from 3.06218e-006 ++to 3.0622e-006
Heightened Def Con from 3.0622e-006 +++to 3.0622e-006
Heightened Def Con from 3.0622e-006 to 3.0622e-006
Heightened Def Con from 3.0622e-006 +to 3.0622e-006
Heightened Def Con from 3.0622e-006 +++++to 3.0622e-006
Heightened Def Con from 3.0622e-006 +++to 3.0632e-006
Heightened Def Con from 3.06323e-006 +to 3.06324e-006
Heightened Def Con from 3.06324e-006 to 3.06337e-006
Heightened Def Con from 3.0634e-006 +to 3.06352e-006
Heightened Def Con from 3.06352e-006 ++to 3.06354e-006
Heightened Def Con from 3.06357e-006 to 3.06357e-006
Heightened Def Con from 3.06358e-006 to 3.06358e-006
Heightened Def Con from 3.06358e-006 +++to 3.06358e-006
Heightened Def Con from 3.06358e-006 to 3.06358e-006
Heightened Def Con from 3.06358e-006 to 3.06358e-006
Heightened Def Con from 3.06358e-006 to 3.06358e-006
Heightened Def Con from 3.06358e-006 +to 3.0637e-006
Heightened Def Con from 3.0637e-006 to 3.06372e-006
Heightened Def Con from 3.06372e-006 to 3.06372e-006
Heightened Def Con from 3.06372e-006 to 3.06372e-006
Heightened Def Con from 3.06372e-006 to 3.06374e-006
Heightened Def Con from 3.06374e-006 to 3.06474e-006
Heightened Def Con from 3.06474e-006 to 3.06474e-006
Heightened Def Con from 3.06474e-006 +to 3.06475e-006
Heightened Def Con from 3.06475e-006 +++to 3.06475e-006
Heightened Def Con from 3.06475e-006 to 3.06475e-006
Heightened Def Con from 3.06475e-006 +to 3.06475e-006
Heightened Def Con from 3.06475e-006 +++to 3.06488e-006
Heightened Def Con from 3.06488e-006 to 3.06489e-006
Heightened Def Con from 3.06489e-006 +to 3.06502e-006
Heightened Def Con from 3.06502e-006 +to 3.06502e-006
Heightened Def Con from 3.06502e-006 +++to 3.06502e-006
Heightened Def Con from 3.06502e-006 to 3.06502e-006
Heightened Def Con from 3.06502e-006 to 3.06502e-006
Heightened Def Con from 3.06502e-006 +++++to 3.06502e-006
Heightened Def Con from 3.06502e-006 +to 3.06502e-006
Heightened Def Con from 3.06502e-006 +++to 3.06602e-006
Heightened Def Con from 3.06602e-006 +to 3.06602e-006
Heightened Def Con from 3.06602e-006 to 3.06602e-006
Heightened Def Con from 3.06602e-006 +to 3.06702e-006
Heightened Def Con from 3.06702e-006 to 3.06702e-006
Heightened Def Con from 3.06702e-006 ++++to 3.06704e-006
Heightened Def Con from 3.06704e-006 +++to 3.06704e-006
Heightened Def Con from 3.06704e-006 to 3.06705e-006
Heightened Def Con from 3.06705e-006 ++to 3.06805e-006
Heightened Def Con from 3.06805e-006 to 3.06805e-006
Heightened Def Con from 3.06805e-006 +to 3.06805e-006
Heightened Def Con from 3.06805e-006 to 3.06805e-006
Heightened Def Con from 3.06805e-006 to 3.06818e-006
Heightened Def Con from 3.06818e-006 to 3.0683e-006
Heightened Def Con from 3.0683e-006 +to 3.0703e-006
Heightened Def Con from 3.0703e-006 to 3.0703e-006
Heightened Def Con from 3.0703e-006 +to 3.0703e-006
Heightened Def Con from 3.0703e-006 to 3.0703e-006
Heightened Def Con from 3.0703e-006 ++to 3.07032e-006
Heightened Def Con from 3.07032e-006 ++to 3.07032e-006
Heightened Def Con from 3.07032e-006 to 3.07132e-006
Heightened Def Con from 3.07132e-006 to 3.07135e-006
Heightened Def Con from 3.07135e-006 +++to 3.07135e-006
Heightened Def Con from 3.07135e-006 to 3.07135e-006
Heightened Def Con from 3.07135e-006 to 3.07135e-006
Heightened Def Con from 3.07135e-006 to 3.07135e-006
Heightened Def Con from 3.07135e-006 to 3.07135e-006
Heightened Def Con from 3.07135e-006 +to 3.07136e-006
Heightened Def Con from 3.07136e-006 to 3.07136e-006
Heightened Def Con from 3.07136e-006 to 3.07336e-006
Heightened Def Con from 3.0944e-006 to 3.09552e-006
Heightened Def Con from 3.09643e-006 to 3.09843e-006
Heightened Def Con from 3.10043e-006 to 3.10144e-006
Heightened Def Con from 3.10144e-006 to 3.10256e-006
Heightened Def Con from 3.10257e-006 to 3.10358e-006
Heightened Def Con from 3.10386e-006 to 3.10586e-006
Heightened Def Con from 3.10787e-006 to 3.10787e-006
Heightened Def Con from 3.10792e-006 to 3.10817e-006
Heightened Def Con from 3.11326e-006 to 3.11438e-006
Heightened Def Con from 3.11482e-006 to 3.11495e-006
Heightened Def Con from 3.11495e-006 to 3.11495e-006
Heightened Def Con from 3.11495e-006 to 3.11495e-006
Heightened Def Con from 3.11495e-006 +++++++++to 3.11508e-006
Heightened Def Con from 3.11508e-006 +++++++++to 3.11608e-006
Heightened Def Con from 3.11608e-006 +++++++++to 3.1162e-006
Heightened Def Con from 3.1162e-006 +++++++++to 3.1172e-006
Heightened Def Con from 3.1172e-006 +to 3.1172e-006
Heightened Def Con from 3.1172e-006 to 3.1172e-006
Heightened Def Con from 3.1172e-006 +++++++++to 3.1182e-006
Heightened Def Con from 3.1182e-006 +++++++++to 3.1192e-006
Heightened Def Con from 3.1192e-006 +to 3.1192e-006
Heightened Def Con from 3.1192e-006 +to 3.1192e-006
Heightened Def Con from 3.1192e-006 to 3.11934e-006
Heightened Def Con from 3.11934e-006 ++++++++to 3.12034e-006
Heightened Def Con from 3.12034e-006 ++++++++to 3.12047e-006
Heightened Def Con from 3.12047e-006 ++++++++to 3.12147e-006
Heightened Def Con from 3.12147e-006 ++++++++to 3.12159e-006
Heightened Def Con from 3.12159e-006 ++++++++to 3.12172e-006
Heightened Def Con from 3.12172e-006 ++++to 3.12172e-006
Heightened Def Con from 3.12172e-006 ++++++++to 3.12272e-006
Heightened Def Con from 3.12272e-006 ++++++++to 3.12372e-006
Heightened Def Con from 3.12372e-006 ++++++++to 3.12373e-006
Heightened Def Con from 3.12373e-006 ++++++++to 3.12374e-006
Heightened Def Con from 3.12374e-006 ++++++++to 3.12386e-006
Heightened Def Con from 3.12386e-006 ++++++++to 3.12386e-006
Heightened Def Con from 3.12386e-006 ++++++++to 3.12386e-006
Heightened Def Con from 3.12386e-006 ++++++++to 3.12386e-006
Heightened Def Con from 3.12386e-006 ++++++++to 3.12386e-006
Heightened Def Con from 3.12386e-006 ++++++++to 3.12386e-006
Heightened Def Con from 3.12386e-006 ++++++++to 3.12386e-006
Heightened Def Con from 3.12386e-006 ++++++++to 3.12386e-006
Heightened Def Con from 3.12386e-006 ++++++++to 3.12386e-006
Heightened Def Con from 3.12386e-006 ++++++++to 3.12386e-006
Heightened Def Con from 3.12386e-006 ++++++++to 3.12386e-006
Heightened Def Con from 3.12386e-006 ++++++++to 3.12386e-006
Heightened Def Con from 3.12386e-006 ++++++++to 3.12386e-006
Heightened Def Con from 3.12386e-006 ++++++++to 3.12386e-006
Heightened Def Con from 3.12386e-006 ++++++++to 3.12386e-006
Heightened Def Con from 3.12386e-006 ++++++++to 3.12386e-006
Heightened Def Con from 3.12386e-006 ++++++++to 3.12386e-006
Heightened Def Con from 3.12386e-006 ++++++++to 3.12386e-006
Heightened Def Con from 3.12386e-006 ++++++++to 3.12386e-006
Heightened Def Con from 3.12386e-006 ++++++++to 3.12386e-006
Heightened Def Con from 3.12386e-006 ++++++++to 3.12386e-006
Heightened Def Con from 3.12386e-006 ++++++++to 3.12386e-006
Heightened Def Con from 3.12386e-006 ++++++++to 3.12386e-006
Heightened Def Con from 3.12386e-006 ++++++++to 3.12386e-006
Heightened Def Con from 3.12386e-006 ++++++++to 3.12386e-006
Heightened Def Con from 3.12386e-006 ++++++++to 3.12386e-006
Heightened Def Con from 3.12386e-006 ++++++++to 3.12386e-006
Heightened Def Con from 3.12386e-006 ++++++++to 3.12386e-006
Heightened Def Con from 3.12386e-006 ++++++++to 3.12386e-006
Heightened Def Con from 3.12386e-006 ++++++++to 3.12386e-006
Heightened Def Con from 3.12386e-006 ++++++++to 3.12386e-006
Heightened Def Con from 3.12386e-006 ++++++++to 3.12386e-006
Heightened Def Con from 3.12386e-006 ++++++++to 3.12386e-006
Heightened Def Con from 3.12386e-006 ++++++++to 3.12386e-006
Heightened Def Con from 3.12386e-006 ++++++++to 3.12386e-006
Heightened Def Con from 3.12386e-006 ++++++++to 3.12386e-006
Heightened Def Con from 3.12386e-006 ++++++++to 3.12386e-006
Heightened Def Con from 3.12386e-006 ++++++++to 3.12386e-006
Heightened Def Con from 3.12386e-006 ++++++++to 3.12386e-006
Heightened Def Con from 3.12386e-006 ++++++++to 3.12386e-006
Heightened Def Con from 3.12386e-006 ++++++++to 3.12386e-006
Heightened Def Con from 3.12386e-006 ++++++++to 3.12386e-006
Heightened Def Con from 3.12386e-006 ++++++++to 3.12386e-006
Heightened Def Con from 3.12386e-006 ++++++++to 3.12386e-006
Heightened Def Con from 3.12386e-006 ++++++++to 3.12386e-006
Heightened Def Con from 3.12386e-006 ++++++++to 3.12386e-006
Heightened Def Con from 3.12386e-006 ++++++++to 3.12386e-006
Heightened Def Con from 3.12386e-006 ++++++++to 3.12386e-006
Heightened Def Con from 3.12386e-006 ++++++++to 3.12386e-006
Heightened Def Con from 3.12386e-006 ++++++++to 3.12386e-006
Heightened Def Con from 3.12386e-006 ++++++++to 3.12386e-006
Heightened Def Con from 3.12386e-006 ++++++++to 3.12386e-006
Heightened Def Con from 3.12386e-006 ++++++++to 3.12386e-006
Heightened Def Con from 3.12386e-006 ++++++++to 3.12386e-006
Heightened Def Con from 3.12386e-006 +++++++++++to 3.12386e-006
Heightened Def Con from 3.12386e-006 ++++++++to 3.12386e-006
Heightened Def Con from 3.12386e-006 +++++++++to 3.12386e-006
Heightened Def Con from 3.12386e-006 ++++++++++to 3.12386e-006
Heightened Def Con from 3.12386e-006 +++++++++to 3.12386e-006
Heightened Def Con from 3.12386e-006 +++++++++to 3.12486e-006
Heightened Def Con from 3.12486e-006 +++++++++to 3.12586e-006
Heightened Def Con from 3.12586e-006 ++++++++++++to 3.12686e-006
Heightened Def Con from 3.12686e-006 +++++++++to 3.12686e-006
Heightened Def Con from 3.12686e-006 +++++++++to 3.12687e-006
Heightened Def Con from 3.12687e-006 ++++++++++++to 3.12787e-006
Heightened Def Con from 3.12787e-006 ++++++++to 3.12787e-006
Heightened Def Con from 3.12787e-006 ++++++++to 3.12787e-006
Heightened Def Con from 3.12787e-006 ++++++++to 3.12887e-006
Heightened Def Con from 3.12887e-006 ++++++++to 3.12888e-006
Heightened Def Con from 3.12888e-006 ++++++++++++to 3.12988e-006
Heightened Def Con from 3.12988e-006 ++++++++to 3.13088e-006
Heightened Def Con from 3.13088e-006 ++++++++to 3.13188e-006
Heightened Def Con from 3.13188e-006 ++++++++to 3.13188e-006
Heightened Def Con from 3.13188e-006 ++++++++to 3.13201e-006
Heightened Def Con from 3.13201e-006 +++++++++to 3.13201e-006
Heightened Def Con from 3.13201e-006 ++++++++to 3.13301e-006
Heightened Def Con from 3.13301e-006 +++++++to 3.13401e-006
Heightened Def Con from 3.13401e-006 +++++++to 3.13401e-006
Heightened Def Con from 3.13401e-006 +++++++to 3.13401e-006
Heightened Def Con from 3.13401e-006 +++++++to 3.13501e-006
Heightened Def Con from 3.13501e-006 ++++++to 3.13501e-006
Heightened Def Con from 3.13501e-006 ++++++to 3.13501e-006
Heightened Def Con from 3.13501e-006 ++++++to 3.13601e-006
Heightened Def Con from 3.13601e-006 ++++++to 3.13601e-006
Heightened Def Con from 3.13601e-006 ++++to 3.13701e-006
Heightened Def Con from 3.13701e-006 to 3.13801e-006
Heightened Def Con from 3.13801e-006 to 3.14001e-006
Heightened Def Con from 3.28601e-006 to 3.28602e-006
Heightened Def Con from 3.28602e-006 to 3.28702e-006
Heightened Def Con from 3.28702e-006 to 3.28727e-006
Heightened Def Con from 3.2873e-006 to 3.28732e-006
Heightened Def Con from 3.28732e-006 to 3.28932e-006
Heightened Def Con from 3.29132e-006 +to 3.29144e-006
Heightened Def Con from 3.29145e-006 to 3.2917e-006
Heightened Def Con from 3.29195e-006 to 3.29198e-006
Heightened Def Con from 3.29221e-006 to 3.29322e-006
Heightened Def Con from 3.29322e-006 to 3.29434e-006
Heightened Def Con from 3.29437e-006 to 3.29437e-006
Heightened Def Con from 3.29437e-006 to 3.29437e-006
Heightened Def Con from 3.29438e-006 to 3.29638e-006
Heightened Def Con from 3.30239e-006 to 3.30439e-006
Heightened Def Con from 3.3044e-006 to 3.3064e-006
Heightened Def Con from 3.3064e-006 to 3.3064e-006
Heightened Def Con from 3.3064e-006 to 3.3084e-006
Heightened Def Con from 3.30841e-006 to 3.31041e-006
Heightened Def Con from 3.32619e-006 to 3.32819e-006
Heightened Def Con from 3.33457e-006 to 3.33569e-006
Heightened Def Con from 3.33769e-006 to 3.33771e-006
Heightened Def Con from 3.33771e-006 to 3.33773e-006
Heightened Def Con from 3.33773e-006 to 3.33873e-006
Heightened Def Con from 3.33873e-006 to 3.33874e-006
Heightened Def Con from 3.33874e-006 to 3.33874e-006
Heightened Def Con from 3.33874e-006 to 3.33888e-006
Heightened Def Con from 3.33888e-006 to 3.33889e-006
Heightened Def Con from 3.33889e-006 to 3.33889e-006
Heightened Def Con from 3.33889e-006 to 3.33889e-006
Heightened Def Con from 3.33889e-006 to 3.33889e-006
Heightened Def Con from 3.33889e-006 to 3.33902e-006
Heightened Def Con from 3.33902e-006 to 3.33902e-006
Heightened Def Con from 3.33902e-006 +++++++to 3.33902e-006
Heightened Def Con from 3.33902e-006 to 3.33902e-006
Heightened Def Con from 3.33902e-006 to 3.33902e-006
Heightened Def Con from 3.33902e-006 to 3.33902e-006
Heightened Def Con from 3.33902e-006 to 3.33902e-006
Heightened Def Con from 3.33902e-006 to 3.33902e-006
Heightened Def Con from 3.33902e-006 +to 3.33916e-006
Heightened Def Con from 3.33941e-006 to 3.33942e-006
Heightened Def Con from 3.33942e-006 +to 3.33942e-006
Heightened Def Con from 3.33942e-006 to 3.33943e-006
Heightened Def Con from 3.33943e-006 ++to 3.33943e-006
Heightened Def Con from 3.33943e-006 to 3.33943e-006
Heightened Def Con from 3.33943e-006 to 3.33943e-006
Heightened Def Con from 3.33943e-006 to 3.33943e-006
Heightened Def Con from 3.33943e-006 to 3.33943e-006
Heightened Def Con from 3.33943e-006 to 3.33943e-006
Heightened Def Con from 3.33943e-006 to 3.33943e-006
Heightened Def Con from 3.33943e-006 to 3.33943e-006
Heightened Def Con from 3.33943e-006 ++to 3.33943e-006
Heightened Def Con from 3.33943e-006 ++to 3.33945e-006
Heightened Def Con from 3.33945e-006 +to 3.33945e-006
Heightened Def Con from 3.33945e-006 to 3.33945e-006
Heightened Def Con from 3.33945e-006 +++++to 3.34045e-006
Heightened Def Con from 3.34045e-006 +++++++++++to 3.34045e-006
Heightened Def Con from 3.34045e-006 +++++++++to 3.34145e-006
Heightened Def Con from 3.34145e-006 +++to 3.34245e-006
Heightened Def Con from 3.34245e-006 +to 3.34245e-006
Heightened Def Con from 3.34245e-006 ++to 3.34345e-006
Heightened Def Con from 3.34376e-006 to 3.34489e-006
Heightened Def Con from 3.34489e-006 to 3.34689e-006
Heightened Def Con from 3.34703e-006 to 3.34705e-006
Heightened Def Con from 3.34705e-006 to 3.3473e-006
Heightened Def Con from 3.34755e-006 to 3.34755e-006
Heightened Def Con from 3.34755e-006 to 3.34768e-006
Heightened Def Con from 3.34768e-006 ++to 3.3478e-006
Heightened Def Con from 3.3478e-006 to 3.34783e-006
Heightened Def Con from 3.34783e-006 to 3.34783e-006
Heightened Def Con from 3.34783e-006 ++++++to 3.34783e-006
Heightened Def Con from 3.34783e-006 to 3.34785e-006
Heightened Def Con from 3.34785e-006 to 3.34785e-006
Heightened Def Con from 3.34785e-006 to 3.34799e-006
Heightened Def Con from 3.34799e-006 +to 3.34799e-006
Heightened Def Con from 3.34799e-006 +to 3.34799e-006
Heightened Def Con from 3.34799e-006 to 3.348e-006
Heightened Def Con from 3.348e-006 to 3.348e-006
Heightened Def Con from 3.348e-006 to 3.348e-006
Heightened Def Con from 3.348e-006 to 3.348e-006
Heightened Def Con from 3.348e-006 to 3.34802e-006
Heightened Def Con from 3.34802e-006 to 3.34802e-006
Heightened Def Con from 3.34802e-006 to 3.34805e-006
Heightened Def Con from 3.34805e-006 to 3.34805e-006
Heightened Def Con from 3.34805e-006 to 3.34805e-006
Heightened Def Con from 3.34805e-006 to 3.34805e-006
Heightened Def Con from 3.34805e-006 to 3.34807e-006
Heightened Def Con from 3.34807e-006 to 3.34807e-006
Heightened Def Con from 3.34807e-006 to 3.34807e-006
Heightened Def Con from 3.34807e-006 to 3.34809e-006
Heightened Def Con from 3.34809e-006 to 3.34809e-006
Heightened Def Con from 3.34809e-006 to 3.34809e-006
Heightened Def Con from 3.34809e-006 ++++++to 3.34809e-006
Heightened Def Con from 3.34809e-006 ++++++to 3.34809e-006
Heightened Def Con from 3.34809e-006 to 3.34809e-006
Heightened Def Con from 3.34809e-006 to 3.34809e-006
Heightened Def Con from 3.34809e-006 to 3.34809e-006
Heightened Def Con from 3.34809e-006 to 3.34809e-006
Heightened Def Con from 3.34809e-006 to 3.34809e-006
Heightened Def Con from 3.34809e-006 to 3.34809e-006
Heightened Def Con from 3.34809e-006 to 3.34809e-006
Heightened Def Con from 3.34809e-006 to 3.34809e-006
Heightened Def Con from 3.34809e-006 to 3.34809e-006
Heightened Def Con from 3.34809e-006 +++++++to 3.34822e-006
Heightened Def Con from 3.34822e-006 +++++++to 3.34822e-006
Heightened Def Con from 3.34822e-006 +++to 3.34822e-006
Heightened Def Con from 3.34822e-006 +++++++to 3.34824e-006
Heightened Def Con from 3.34824e-006 ++++++to 3.34824e-006
Heightened Def Con from 3.34824e-006 ++++++to 3.34824e-006
Heightened Def Con from 3.34824e-006 +++++++to 3.34825e-006
Heightened Def Con from 3.34825e-006 ++++++to 3.34925e-006
Heightened Def Con from 3.34925e-006 ++++++to 3.34925e-006
Heightened Def Con from 3.34925e-006 ++++++to 3.34925e-006
Heightened Def Con from 3.34925e-006 +++++to 3.35025e-006
Heightened Def Con from 3.35025e-006 ++++to 3.35026e-006
Heightened Def Con from 3.35026e-006 ++++to 3.35126e-006
Heightened Def Con from 3.35126e-006 +to 3.35126e-006
Heightened Def Con from 3.35126e-006 +++to 3.35226e-006
Heightened Def Con from 3.35226e-006 ++++to 3.35238e-006
Heightened Def Con from 3.35238e-006 +to 3.35251e-006
Heightened Def Con from 3.35251e-006 to 3.35251e-006
Heightened Def Con from 3.35251e-006 to 3.35251e-006
Heightened Def Con from 3.35251e-006 to 3.35251e-006
Heightened Def Con from 3.35251e-006 +++to 3.35352e-006
Heightened Def Con from 3.35352e-006 to 3.35354e-006
Heightened Def Con from 3.35354e-006 +to 3.35354e-006
Heightened Def Con from 3.35354e-006 to 3.35354e-006
Heightened Def Con from 3.35354e-006 to 3.35366e-006
Heightened Def Con from 3.35366e-006 to 3.35366e-006
Heightened Def Con from 3.35366e-006 to 3.35466e-006
Heightened Def Con from 3.35467e-006 to 3.35579e-006
Heightened Def Con from 3.35581e-006 to 3.35606e-006
Heightened Def Con from 3.3561e-006 to 3.3561e-006
Heightened Def Con from 3.3561e-006 to 3.35611e-006
Heightened Def Con from 3.35612e-006 to 3.35637e-006
Heightened Def Con from 3.35637e-006 to 3.35837e-006
Heightened Def Con from 3.35837e-006 to 3.35838e-006
Heightened Def Con from 3.35839e-006 to 3.35939e-006
Heightened Def Con from 3.35939e-006 to 3.35952e-006
Heightened Def Con from 3.35952e-006 to 3.35952e-006
Heightened Def Con from 3.35952e-006 to 3.35952e-006
Heightened Def Con from 3.35952e-006 to 3.36152e-006
Heightened Def Con from 3.36174e-006 to 3.36174e-006
Heightened Def Con from 3.36174e-006 to 3.36199e-006
Heightened Def Con from 3.36208e-006 to 3.36321e-006
Heightened Def Con from 3.36496e-006 to 3.36499e-006
Heightened Def Con from 3.365e-006 to 3.36501e-006
Heightened Def Con from 3.36501e-006 to 3.36501e-006
Heightened Def Con from 3.36501e-006 to 3.36503e-006
Heightened Def Con from 3.36503e-006 to 3.36516e-006
Heightened Def Con from 3.36516e-006 to 3.36716e-006
Heightened Def Con from 3.36743e-006 to 3.36845e-006
Heightened Def Con from 3.36876e-006 to 3.36876e-006
Heightened Def Con from 3.36876e-006 to 3.36977e-006
Heightened Def Con from 3.36977e-006 to 3.36979e-006
Heightened Def Con from 3.36979e-006 to 3.36979e-006
Heightened Def Con from 3.36979e-006 to 3.37179e-006
Heightened Def Con from 3.37204e-006 to 3.37218e-006
Heightened Def Con from 3.37218e-006 to 3.37243e-006
Heightened Def Con from 3.37249e-006 to 3.37249e-006
Heightened Def Con from 3.37249e-006 to 3.37274e-006
Heightened Def Con from 3.37449e-006 to 3.37449e-006
Heightened Def Con from 3.37449e-006 to 3.37449e-006
Heightened Def Con from 3.37449e-006 to 3.37649e-006
Heightened Def Con from 3.37728e-006 to 3.37729e-006
Heightened Def Con from 3.37729e-006 to 3.37733e-006
Heightened Def Con from 3.37733e-006 to 3.37733e-006
Heightened Def Con from 3.37733e-006 to 3.37735e-006
Heightened Def Con from 3.37735e-006 to 3.37835e-006
Heightened Def Con from 3.37835e-006 to 3.37837e-006
Heightened Def Con from 3.37837e-006 to 3.37837e-006
Heightened Def Con from 3.37837e-006 to 3.3785e-006
Heightened Def Con from 3.3785e-006 to 3.37864e-006
Heightened Def Con from 3.37864e-006 to 3.37865e-006
Heightened Def Con from 3.37865e-006 to 3.37978e-006
Heightened Def Con from 3.37982e-006 to 3.37994e-006
Heightened Def Con from 3.37994e-006 to 3.38007e-006
Heightened Def Con from 3.38007e-006 to 3.38207e-006
Heightened Def Con from 3.38232e-006 to 3.38245e-006
Heightened Def Con from 3.38245e-006 to 3.38245e-006
Heightened Def Con from 3.38245e-006 to 3.38258e-006
Heightened Def Con from 3.38258e-006 to 3.38258e-006
Heightened Def Con from 3.38258e-006 to 3.38283e-006
Heightened Def Con from 3.38286e-006 to 3.38286e-006
Heightened Def Con from 3.38286e-006 to 3.38288e-006
Heightened Def Con from 3.38288e-006 to 3.38289e-006
Heightened Def Con from 3.38289e-006 to 3.38314e-006
Heightened Def Con from 3.38318e-006 +to 3.38518e-006
Heightened Def Con from 3.38519e-006 to 3.38519e-006
Heightened Def Con from 3.38519e-006 to 3.38531e-006
Heightened Def Con from 3.38531e-006 to 3.38532e-006
Heightened Def Con from 3.38532e-006 to 3.38532e-006
Heightened Def Con from 3.38532e-006 to 3.38732e-006
Heightened Def Con from 3.38732e-006 to 3.38732e-006
Heightened Def Con from 3.38732e-006 to 3.38733e-006
Heightened Def Con from 3.38733e-006 to 3.38733e-006
Heightened Def Con from 3.38733e-006 ++to 3.38746e-006
Heightened Def Con from 3.38746e-006 to 3.38746e-006
Heightened Def Con from 3.38746e-006 to 3.38748e-006
Heightened Def Con from 3.38748e-006 to 3.38948e-006
Heightened Def Con from 3.41948e-006 to 3.41973e-006
Heightened Def Con from 3.41973e-006 to 3.41985e-006
Heightened Def Con from 3.41986e-006 +to 3.42086e-006
Heightened Def Con from 3.42086e-006 ++++++to 3.42086e-006
Heightened Def Con from 3.42086e-006 to 3.42087e-006
Heightened Def Con from 3.42087e-006 +to 3.42088e-006
Heightened Def Con from 3.42088e-006 +to 3.42088e-006
Heightened Def Con from 3.42088e-006 +to 3.42089e-006
Heightened Def Con from 3.42089e-006 to 3.42089e-006
Heightened Def Con from 3.42089e-006 to 3.42089e-006
Heightened Def Con from 3.42089e-006 +to 3.42089e-006
Heightened Def Con from 3.42089e-006 +to 3.42091e-006
Heightened Def Con from 3.42091e-006 to 3.42103e-006
Heightened Def Con from 3.42103e-006 to 3.42116e-006
Heightened Def Con from 3.42116e-006 +++++to 3.42216e-006
Heightened Def Con from 3.42216e-006 to 3.42316e-006
Heightened Def Con from 3.42331e-006 to 3.42334e-006
Heightened Def Con from 3.4236e-006 to 3.42472e-006
Heightened Def Con from 3.42472e-006 to 3.42474e-006
Heightened Def Con from 3.42474e-006 to 3.42487e-006
Heightened Def Con from 3.42488e-006 to 3.42488e-006
Heightened Def Con from 3.42488e-006 to 3.42488e-006
Heightened Def Con from 3.42488e-006 to 3.42488e-006
Heightened Def Con from 3.42488e-006 to 3.42488e-006
Heightened Def Con from 3.42488e-006 to 3.42488e-006
Heightened Def Con from 3.42488e-006 to 3.42488e-006
Heightened Def Con from 3.42488e-006 to 3.42488e-006
Heightened Def Con from 3.42488e-006 +to 3.42503e-006
Heightened Def Con from 3.42506e-006 to 3.4252e-006
Heightened Def Con from 3.4252e-006 +to 3.4252e-006
Heightened Def Con from 3.4252e-006 +to 3.4252e-006
Heightened Def Con from 3.4252e-006 +to 3.4252e-006
Heightened Def Con from 3.4252e-006 to 3.4252e-006
Heightened Def Con from 3.4252e-006 to 3.4252e-006
Heightened Def Con from 3.4252e-006 +to 3.4252e-006
Heightened Def Con from 3.4252e-006 +to 3.4252e-006
Heightened Def Con from 3.4252e-006 +to 3.4252e-006
Heightened Def Con from 3.4252e-006 to 3.42522e-006
Heightened Def Con from 3.42522e-006 +to 3.42523e-006
Heightened Def Con from 3.42526e-006 +++to 3.42526e-006
Heightened Def Con from 3.42526e-006 ++++++to 3.42527e-006
Heightened Def Con from 3.42527e-006 +to 3.42527e-006
Heightened Def Con from 3.42527e-006 ++++++to 3.42527e-006
Heightened Def Con from 3.42527e-006 to 3.42529e-006
Heightened Def Con from 3.42529e-006 ++++++to 3.42529e-006
Heightened Def Con from 3.42529e-006 to 3.42529e-006
Heightened Def Con from 3.42529e-006 +to 3.42529e-006
Heightened Def Con from 3.42529e-006 ++++to 3.42629e-006
Heightened Def Con from 3.42629e-006 ++++to 3.42629e-006
Heightened Def Con from 3.42629e-006 ++to 3.42629e-006
Heightened Def Con from 3.42629e-006 to 3.42829e-006
Heightened Def Con from 3.42906e-006 to 3.43007e-006
Heightened Def Con from 3.4301e-006 to 3.43112e-006
Heightened Def Con from 3.43112e-006 to 3.43212e-006
Heightened Def Con from 3.43212e-006 to 3.43312e-006
Heightened Def Con from 3.43312e-006 to 3.43312e-006
Heightened Def Con from 3.43312e-006 to 3.43412e-006
Heightened Def Con from 3.43412e-006 to 3.43413e-006
Heightened Def Con from 3.43413e-006 to 3.43427e-006
Heightened Def Con from 3.43428e-006 to 3.43528e-006
Heightened Def Con from 3.43529e-006 to 3.43629e-006
Heightened Def Con from 3.43629e-006 to 3.43829e-006
Heightened Def Con from 3.43832e-006 to 3.43832e-006
Heightened Def Con from 3.43833e-006 to 3.43945e-006
Heightened Def Con from 3.4397e-006 to 3.43984e-006
Heightened Def Con from 3.43988e-006 to 3.43991e-006
Heightened Def Con from 3.43993e-006 to 3.44093e-006
Heightened Def Con from 3.44093e-006 to 3.44093e-006
Heightened Def Con from 3.44093e-006 to 3.44206e-006
Heightened Def Con from 3.44232e-006 to 3.44236e-006
Heightened Def Con from 3.44237e-006 to 3.44251e-006
[...]
Heightened Def Con from 4.13089e-006 to 4.13092e-006
Heightened Def Con from 4.13092e-006 to 4.13092e-006
Heightened Def Con from 4.13092e-006 to 4.13092e-006
Heightened Def Con from 4.13092e-006 to 4.13092e-006
Heightened Def Con from 4.13092e-006 to 4.13092e-006
Heightened Def Con from 4.13092e-006 to 4.13092e-006
Heightened Def Con from 4.13092e-006 +to 4.13105e-006
Heightened Def Con from 4.13105e-006 to 4.13105e-006
Heightened Def Con from 4.13105e-006 +to 4.13105e-006
Heightened Def Con from 4.13105e-006 to 4.13105e-006
Heightened Def Con from 4.13105e-006 +to 4.13117e-006
Heightened Def Con from 4.13117e-006 to 4.13317e-006
Heightened Def Con from 4.13567e-006 to 4.1358e-006
Heightened Def Con from 4.1358e-006 to 4.1358e-006
Heightened Def Con from 4.1358e-006 to 4.1358e-006
Heightened Def Con from 4.1358e-006 to 4.13594e-006
Heightened Def Con from 4.13597e-006 to 4.13597e-006
Heightened Def Con from 4.13597e-006 to 4.1361e-006
Heightened Def Con from 4.1361e-006 to 4.1361e-006
Heightened Def Con from 4.1361e-006 +to 4.13722e-006
Heightened Def Con from 4.13748e-006 to 4.13748e-006
Heightened Def Con from 4.13748e-006 to 4.13749e-006
Heightened Def Con from 4.13749e-006 to 4.13749e-006
Heightened Def Con from 4.13749e-006 +to 4.13749e-006
Heightened Def Con from 4.13749e-006 +to 4.13774e-006
Heightened Def Con from 4.13774e-006 to 4.13774e-006
Heightened Def Con from 4.13774e-006 to 4.13777e-006
Heightened Def Con from 4.13777e-006 to 4.13778e-006
Heightened Def Con from 4.13778e-006 to 4.1379e-006
Heightened Def Con from 4.1379e-006 to 4.1379e-006
Heightened Def Con from 4.1379e-006 to 4.13792e-006
Heightened Def Con from 4.13792e-006 to 4.13804e-006
Heightened Def Con from 4.13804e-006 to 4.13806e-006
Heightened Def Con from 4.13806e-006 to 4.13818e-006
Heightened Def Con from 4.13818e-006 to 4.13818e-006
Heightened Def Con from 4.13818e-006 to 4.13818e-006
Heightened Def Con from 4.13818e-006 to 4.13818e-006
Heightened Def Con from 4.13818e-006 to 4.13818e-006
Heightened Def Con from 4.13818e-006 to 4.13831e-006
Heightened Def Con from 4.13831e-006 +to 4.14031e-006
Heightened Def Con from 4.14031e-006 to 4.14031e-006
Heightened Def Con from 4.14031e-006 to 4.14031e-006
Heightened Def Con from 4.14031e-006 +to 4.14044e-006
Heightened Def Con from 4.14044e-006 +to 4.14044e-006
Heightened Def Con from 4.14044e-006 +to 4.14044e-006
Heightened Def Con from 4.14044e-006 to 4.14045e-006
Heightened Def Con from 4.14045e-006 to 4.14045e-006
Heightened Def Con from 4.14045e-006 to 4.14045e-006
Heightened Def Con from 4.14045e-006 to 4.14046e-006
Heightened Def Con from 4.14046e-006 to 4.14058e-006
Heightened Def Con from 4.14058e-006 to 4.14071e-006
Heightened Def Con from 4.14071e-006 to 4.14071e-006
Heightened Def Con from 4.14071e-006 to 4.14096e-006
Heightened Def Con from 4.14121e-006 to 4.14121e-006
Heightened Def Con from 4.14121e-006 to 4.14146e-006
Heightened Def Con from 4.14146e-006 to 4.14146e-006
Heightened Def Con from 4.14146e-006 +to 4.14148e-006
Heightened Def Con from 4.14148e-006 ++to 4.14248e-006
Heightened Def Con from 4.14248e-006 to 4.14448e-006
Heightened Def Con from 4.14448e-006 to 4.1446e-006
Heightened Def Con from 4.14461e-006 to 4.14461e-006
Heightened Def Con from 4.14461e-006 to 4.14461e-006
Heightened Def Con from 4.14461e-006 +to 4.14462e-006
Heightened Def Con from 4.14462e-006 to 4.14563e-006
Heightened Def Con from 4.14563e-006 to 4.14563e-006
Heightened Def Con from 4.14563e-006 to 4.14563e-006
Heightened Def Con from 4.14563e-006 to 4.14676e-006
Heightened Def Con from 4.14851e-006 to 4.14864e-006
Heightened Def Con from 4.14865e-006 to 4.14877e-006
Heightened Def Con from 4.14878e-006 to 4.14878e-006
Heightened Def Con from 4.14878e-006 to 4.14881e-006
Heightened Def Con from 4.14882e-006 to 4.14982e-006
Heightened Def Con from 4.14982e-006 to 4.14982e-006
Heightened Def Con from 4.14982e-006 to 4.14995e-006
Heightened Def Con from 4.14995e-006 to 4.14995e-006
Heightened Def Con from 4.14995e-006 to 4.15009e-006
Heightened Def Con from 4.15031e-006 to 4.15056e-006
Heightened Def Con from 4.15063e-006 to 4.15066e-006
Heightened Def Con from 4.15075e-006 to 4.15175e-006
Heightened Def Con from 4.15175e-006 to 4.15175e-006
Heightened Def Con from 4.15175e-006 to 4.15277e-006
Heightened Def Con from 4.15277e-006 to 4.15377e-006
Heightened Def Con from 4.15377e-006 to 4.1539e-006
Heightened Def Con from 4.1539e-006 to 4.1559e-006
Heightened Def Con from 4.1559e-006 to 4.1559e-006
Heightened Def Con from 4.1559e-006 to 4.15602e-006
Heightened Def Con from 4.15603e-006 to 4.15803e-006
Heightened Def Con from 4.18853e-006 to 4.18878e-006
Heightened Def Con from 4.18894e-006 to 4.19094e-006
Heightened Def Con from 4.19115e-006 to 4.19315e-006
Heightened Def Con from 4.19665e-006 to 4.19865e-006
Heightened Def Con from 4.20072e-006 +to 4.20074e-006
Heightened Def Con from 4.20074e-006 to 4.20077e-006
Heightened Def Con from 4.20077e-006 to 4.20177e-006
Heightened Def Con from 4.20177e-006 to 4.20177e-006
Heightened Def Con from 4.20177e-006 to 4.20177e-006
Heightened Def Con from 4.20177e-006 +to 4.20179e-006
Heightened Def Con from 4.20179e-006 to 4.20181e-006
Heightened Def Con from 4.20181e-006 to 4.20181e-006
Heightened Def Con from 4.20181e-006 to 4.20181e-006
Heightened Def Con from 4.20181e-006 to 4.20181e-006
Heightened Def Con from 4.20181e-006 to 4.20181e-006
Heightened Def Con from 4.20181e-006 to 4.20181e-006
Heightened Def Con from 4.20181e-006 to 4.20181e-006
Heightened Def Con from 4.20181e-006 to 4.20184e-006
Heightened Def Con from 4.20184e-006 to 4.20186e-006
Heightened Def Con from 4.20186e-006 to 4.20186e-006
Heightened Def Con from 4.20186e-006 to 4.20198e-006
Heightened Def Con from 4.20198e-006 to 4.20398e-006
Heightened Def Con from 4.20408e-006 to 4.2041e-006
Heightened Def Con from 4.2041e-006 to 4.2041e-006
Heightened Def Con from 4.2041e-006 to 4.2041e-006
Heightened Def Con from 4.2041e-006 to 4.2041e-006
Heightened Def Con from 4.2041e-006 to 4.20522e-006
Heightened Def Con from 4.20522e-006 to 4.20535e-006
Heightened Def Con from 4.20535e-006 to 4.20535e-006
Heightened Def Con from 4.20535e-006 to 4.20535e-006
Heightened Def Con from 4.20535e-006 +to 4.2056e-006
Heightened Def Con from 4.20739e-006 to 4.20739e-006
Heightened Def Con from 4.20739e-006 +to 4.20839e-006
Heightened Def Con from 4.20839e-006 to 4.20841e-006
Heightened Def Con from 4.20841e-006 to 4.20841e-006
Heightened Def Con from 4.20841e-006 to 4.20841e-006
Heightened Def Con from 4.20841e-006 to 4.20843e-006
Heightened Def Con from 4.20845e-006 to 4.20846e-006
Heightened Def Con from 4.20846e-006 to 4.20847e-006
Heightened Def Con from 4.20847e-006 to 4.2086e-006
Heightened Def Con from 4.2086e-006 to 4.2086e-006
Heightened Def Con from 4.2086e-006 to 4.2086e-006
Heightened Def Con from 4.2086e-006 to 4.2086e-006
Heightened Def Con from 4.2086e-006 +to 4.20862e-006
Heightened Def Con from 4.20862e-006 to 4.20862e-006
Heightened Def Con from 4.20862e-006 to 4.20862e-006
Heightened Def Con from 4.20862e-006 to 4.20874e-006
Heightened Def Con from 4.20874e-006 to 4.20874e-006
Heightened Def Con from 4.20874e-006 to 4.20874e-006
Heightened Def Con from 4.20874e-006 to 4.20874e-006
Heightened Def Con from 4.20874e-006 to 4.20874e-006
Heightened Def Con from 4.20874e-006 to 4.20874e-006
Heightened Def Con from 4.20874e-006 to 4.20876e-006
Heightened Def Con from 4.20876e-006 to 4.20876e-006
Heightened Def Con from 4.20876e-006 +to 4.21078e-006
Heightened Def Con from 4.21103e-006 to 4.21203e-006
Heightened Def Con from 4.21203e-006 to 4.21303e-006
Heightened Def Con from 4.21303e-006 +to 4.21304e-006
Heightened Def Con from 4.21307e-006 to 4.21307e-006
Heightened Def Con from 4.21307e-006 to 4.21307e-006
Heightened Def Con from 4.21307e-006 to 4.21321e-006
Heightened Def Con from 4.21321e-006 to 4.21323e-006
Heightened Def Con from 4.21323e-006 to 4.21336e-006
Heightened Def Con from 4.21336e-006 to 4.21336e-006
Heightened Def Con from 4.21336e-006 to 4.21339e-006
Heightened Def Con from 4.21339e-006 to 4.2134e-006
Heightened Def Con from 4.2134e-006 to 4.21353e-006
Heightened Def Con from 4.21353e-006 to 4.21353e-006
Heightened Def Con from 4.21353e-006 to 4.21454e-006
Heightened Def Con from 4.21458e-006 to 4.21458e-006
Heightened Def Con from 4.21458e-006 to 4.21458e-006
Heightened Def Con from 4.21458e-006 to 4.21458e-006
Heightened Def Con from 4.21458e-006 to 4.21458e-006
Heightened Def Con from 4.21458e-006 to 4.21458e-006
Heightened Def Con from 4.21458e-006 to 4.21458e-006
Heightened Def Con from 4.21458e-006 to 4.21458e-006
Heightened Def Con from 4.21458e-006 to 4.21458e-006
Heightened Def Con from 4.21458e-006 +to 4.21558e-006
Heightened Def Con from 4.21561e-006 to 4.21561e-006
Heightened Def Con from 4.21561e-006 +to 4.21661e-006
Heightened Def Con from 4.2181e-006 to 4.21812e-006
Heightened Def Con from 4.21812e-006 to 4.21837e-006
Heightened Def Con from 4.21956e-006 to 4.21956e-006
Heightened Def Con from 4.21956e-006 to 4.21958e-006
Heightened Def Con from 4.21958e-006 to 4.2196e-006
Heightened Def Con from 4.2196e-006 to 4.21963e-006
Heightened Def Con from 4.21964e-006 to 4.22076e-006
Heightened Def Con from 4.22076e-006 to 4.22078e-006
Heightened Def Con from 4.22078e-006 to 4.22079e-006
Heightened Def Con from 4.22079e-006 to 4.22179e-006
Heightened Def Con from 4.22179e-006 to 4.2218e-006
Heightened Def Con from 4.2218e-006 to 4.22281e-006
Heightened Def Con from 4.22281e-006 to 4.22383e-006
Heightened Def Con from 4.22383e-006 to 4.22383e-006
Heightened Def Con from 4.22383e-006 to 4.22483e-006
Heightened Def Con from 4.22483e-006 to 4.22483e-006
Heightened Def Con from 4.22484e-006 to 4.22596e-006
Heightened Def Con from 4.22621e-006 to 4.22721e-006
Heightened Def Con from 4.22721e-006 to 4.22734e-006
Heightened Def Con from 4.22734e-006 to 4.22735e-006
Heightened Def Con from 4.22735e-006 to 4.22736e-006
Heightened Def Con from 4.22736e-006 to 4.22736e-006
Heightened Def Con from 4.22736e-006 to 4.22736e-006
Heightened Def Con from 4.22736e-006 to 4.22836e-006
Heightened Def Con from 4.22836e-006 to 4.22949e-006
Heightened Def Con from 4.22974e-006 to 4.22974e-006
Heightened Def Con from 4.22974e-006 to 4.22974e-006
Heightened Def Con from 4.22974e-006 to 4.22974e-006
Heightened Def Con from 4.22974e-006 +to 4.22976e-006
Heightened Def Con from 4.22979e-006 to 4.23079e-006
Heightened Def Con from 4.23079e-006 +to 4.2308e-006
Heightened Def Con from 4.2308e-006 to 4.2308e-006
Heightened Def Con from 4.2308e-006 to 4.23082e-006
Heightened Def Con from 4.23082e-006 to 4.23084e-006
Heightened Def Con from 4.23084e-006 to 4.23098e-006
Heightened Def Con from 4.23101e-006 to 4.23101e-006
Heightened Def Con from 4.23101e-006 to 4.23126e-006
Heightened Def Con from 4.23127e-006 to 4.23128e-006
Heightened Def Con from 4.23128e-006 to 4.23229e-006
Heightened Def Con from 4.23229e-006 to 4.23429e-006
Heightened Def Con from 4.23629e-006 to 4.2363e-006
Heightened Def Con from 4.2363e-006 to 4.2363e-006
Heightened Def Con from 4.23631e-006 to 4.23631e-006
Heightened Def Con from 4.23631e-006 to 4.23631e-006
Heightened Def Con from 4.23631e-006 to 4.23643e-006
Heightened Def Con from 4.23643e-006 to 4.23668e-006
Heightened Def Con from 4.23737e-006 to 4.23839e-006
Heightened Def Con from 4.23842e-006 to 4.23855e-006
Heightened Def Con from 4.23855e-006 to 4.23867e-006
Heightened Def Con from 4.23867e-006 to 4.23969e-006
Heightened Def Con from 4.23969e-006 to 4.23969e-006
Heightened Def Con from 4.23969e-006 to 4.24082e-006
Heightened Def Con from 4.24107e-006 +to 4.24207e-006
Heightened Def Con from 4.24352e-006 to 4.24465e-006
Heightened Def Con from 4.24715e-006 to 4.24915e-006
Heightened Def Con from 4.2494e-006 to 4.24942e-006
Heightened Def Con from 4.24942e-006 to 4.25142e-006
Heightened Def Con from 4.2515e-006 to 4.25165e-006
Heightened Def Con from 4.25165e-006 to 4.25165e-006
Heightened Def Con from 4.25165e-006 to 4.25177e-006
Heightened Def Con from 4.25178e-006 to 4.25278e-006
Heightened Def Con from 4.25278e-006 to 4.2539e-006
Heightened Def Con from 4.2539e-006 to 4.25491e-006
Heightened Def Con from 4.25491e-006 to 4.25516e-006
Heightened Def Con from 4.25538e-006 to 4.25538e-006
Heightened Def Con from 4.25538e-006 to 4.25738e-006
Heightened Def Con from 4.26001e-006 to 4.26114e-006
Heightened Def Con from 4.26114e-006 to 4.26128e-006
Heightened Def Con from 4.26137e-006 to 4.26239e-006
Heightened Def Con from 4.26239e-006 to 4.26264e-006
Heightened Def Con from 4.26267e-006 to 4.26369e-006
Heightened Def Con from 4.26378e-006 to 4.26378e-006
Heightened Def Con from 4.26378e-006 to 4.2638e-006
Heightened Def Con from 4.2638e-006 to 4.26482e-006
Heightened Def Con from 4.26486e-006 to 4.26488e-006
Heightened Def Con from 4.26488e-006 to 4.26502e-006
Heightened Def Con from 4.26502e-006 to 4.26527e-006
Heightened Def Con from 4.26552e-006 to 4.26565e-006
Heightened Def Con from 4.26565e-006 to 4.26765e-006
Heightened Def Con from 4.26989e-006 to 4.27189e-006
Heightened Def Con from 4.27214e-006 to 4.27214e-006
Heightened Def Con from 4.27214e-006 to 4.27214e-006
Heightened Def Con from 4.27214e-006 to 4.27414e-006
Heightened Def Con from 4.27633e-006 to 4.27833e-006
Heightened Def Con from 4.27836e-006 to 4.27848e-006
Heightened Def Con from 4.27848e-006 to 4.28048e-006
Heightened Def Con from 4.28101e-006 to 4.28301e-006
Heightened Def Con from 4.28906e-006 to 4.29018e-006
Heightened Def Con from 4.29023e-006 to 4.29036e-006
Heightened Def Con from 4.29036e-006 to 4.29236e-006
Heightened Def Con from 4.29239e-006 to 4.29239e-006
Heightened Def Con from 4.29239e-006 to 4.29439e-006
Heightened Def Con from 4.2969e-006 to 4.2989e-006
Heightened Def Con from 4.30249e-006 to 4.3035e-006
Heightened Def Con from 4.30354e-006 to 4.30554e-006
Heightened Def Con from 4.36756e-006 to 4.36759e-006
Heightened Def Con from 4.36762e-006 to 4.36864e-006
Heightened Def Con from 4.36867e-006 to 4.36881e-006
Heightened Def Con from 4.36888e-006 to 4.36891e-006
Heightened Def Con from 4.36895e-006 to 4.36895e-006
Heightened Def Con from 4.36895e-006 to 4.36907e-006
Heightened Def Con from 4.36908e-006 to 4.3702e-006
Heightened Def Con from 4.3702e-006 to 4.37045e-006
Heightened Def Con from 4.37045e-006 to 4.37245e-006
Heightened Def Con from 4.37289e-006 to 4.37291e-006
Heightened Def Con from 4.37291e-006 to 4.37491e-006
Heightened Def Con from 4.37706e-006 to 4.37819e-006
Heightened Def Con from 4.37819e-006 to 4.37821e-006
Heightened Def Con from 4.37822e-006 to 4.37847e-006
Heightened Def Con from 4.3785e-006 to 4.3805e-006
Heightened Def Con from 4.38412e-006 to 4.38612e-006
Heightened Def Con from 4.38638e-006 to 4.38639e-006
Heightened Def Con from 4.38639e-006 to 4.38664e-006
Heightened Def Con from 4.38707e-006 to 4.38732e-006
Heightened Def Con from 4.38736e-006 to 4.38738e-006
Heightened Def Con from 4.38738e-006 to 4.38751e-006
Heightened Def Con from 4.38751e-006 to 4.38863e-006
Heightened Def Con from 4.38944e-006 to 4.38969e-006
Heightened Def Con from 4.38996e-006 to 4.3901e-006
Heightened Def Con from 4.39085e-006 to 4.39198e-006
Heightened Def Con from 4.39198e-006 to 4.39223e-006
Heightened Def Con from 4.39224e-006 to 4.39336e-006
Heightened Def Con from 4.39711e-006 to 4.39824e-006
Heightened Def Con from 4.39824e-006 to 4.39836e-006
Heightened Def Con from 4.39921e-006 to 4.40023e-006
Heightened Def Con from 4.40023e-006 to 4.40048e-006
Heightened Def Con from 4.40051e-006 to 4.40251e-006
Heightened Def Con from 4.40451e-006 to 4.40452e-006
Heightened Def Con from 4.40452e-006 to 4.40465e-006
Heightened Def Con from 4.40465e-006 to 4.40665e-006
Heightened Def Con from 4.40917e-006 to 4.41018e-006
Heightened Def Con from 4.4102e-006 to 4.4122e-006
Heightened Def Con from 4.41643e-006 to 4.41843e-006
Heightened Def Con from 4.41847e-006 to 4.41872e-006
Heightened Def Con from 4.41912e-006 to 4.41912e-006
Heightened Def Con from 4.41912e-006 to 4.42112e-006
Heightened Def Con from 4.42145e-006 to 4.42148e-006
Heightened Def Con from 4.42148e-006 to 4.42348e-006
Heightened Def Con from 4.42374e-006 to 4.42376e-006
Heightened Def Con from 4.42376e-006 to 4.42376e-006
Heightened Def Con from 4.42376e-006 to 4.42489e-006
Heightened Def Con from 4.42492e-006 to 4.42494e-006
Heightened Def Con from 4.42494e-006 to 4.42494e-006
Heightened Def Con from 4.42495e-006 to 4.4252e-006
Heightened Def Con from 4.4252e-006 to 4.42633e-006
Heightened Def Con from 4.42633e-006 to 4.42745e-006
Heightened Def Con from 4.42746e-006 to 4.42946e-006
Heightened Def Con from 4.42947e-006 to 4.43059e-006
Heightened Def Con from 4.4353e-006 to 4.43642e-006
Heightened Def Con from 4.43642e-006 to 4.43655e-006
Heightened Def Con from 4.43655e-006 to 4.4368e-006
Heightened Def Con from 4.43793e-006 to 4.43806e-006
Heightened Def Con from 4.43806e-006 to 4.44006e-006
Heightened Def Con from 4.46098e-006 to 4.46298e-006
Heightened Def Con from 4.47172e-006 to 4.47372e-006
Heightened Def Con from 4.47397e-006 to 4.47499e-006
Heightened Def Con from 4.47521e-006 to 4.47721e-006
Heightened Def Con from 4.48321e-006 to 4.48521e-006
Heightened Def Con from 4.48721e-006 to 4.48723e-006
Heightened Def Con from 4.48723e-006 to 4.48737e-006
Heightened Def Con from 4.48738e-006 to 4.48938e-006
Heightened Def Con from 4.49139e-006 to 4.49339e-006
Heightened Def Con from 4.49363e-006 to 4.49388e-006
Heightened Def Con from 4.49413e-006 to 4.49427e-006
Heightened Def Con from 4.49427e-006 to 4.4954e-006
Heightened Def Con from 4.49572e-006 to 4.49685e-006
Heightened Def Con from 4.49696e-006 to 4.49896e-006
Heightened Def Con from 4.49899e-006 to 4.49899e-006
Heightened Def Con from 4.49899e-006 to 4.50099e-006
Heightened Def Con from 4.50103e-006 to 4.50128e-006
Heightened Def Con from 4.50172e-006 to 4.50185e-006
Heightened Def Con from 4.50185e-006 to 4.50188e-006
Heightened Def Con from 4.50222e-006 to 4.50334e-006
Heightened Def Con from 4.50362e-006 to 4.50376e-006
Heightened Def Con from 4.5038e-006 to 4.50405e-006
Heightened Def Con from 4.50405e-006 to 4.50408e-006
Heightened Def Con from 4.50408e-006 to 4.5051e-006
Heightened Def Con from 4.50513e-006 to 4.50713e-006
Heightened Def Con from 4.50757e-006 to 4.50857e-006
Heightened Def Con from 4.50857e-006 to 4.51057e-006
Heightened Def Con from 4.5106e-006 to 4.5106e-006
Heightened Def Con from 4.5106e-006 to 4.5126e-006
Heightened Def Con from 4.51397e-006 to 4.51597e-006
Heightened Def Con from 4.54775e-006 to 4.548e-006
Heightened Def Con from 4.54825e-006 to 4.55025e-006
Heightened Def Con from 4.55625e-006 to 4.55825e-006
Heightened Def Con from 4.58965e-006 to 4.5899e-006
Heightened Def Con from 4.5902e-006 to 4.5922e-006
Heightened Def Con from 4.62571e-006 to 4.62573e-006
Heightened Def Con from 4.62575e-006 to 4.62775e-006
Heightened Def Con from 4.64179e-006 to 4.64193e-006
Heightened Def Con from 4.64415e-006 to 4.64417e-006
Heightened Def Con from 4.64417e-006 to 4.64617e-006
Heightened Def Con from 4.64692e-006 to 4.64794e-006
Heightened Def Con from 4.64794e-006 to 4.64819e-006
Heightened Def Con from 4.65244e-006 to 4.65444e-006

Date: Sat Aug 30 07:56:55 2014
Total elapsed time: 13.603 seconds.

tnom = 27
temp = 27
method = modified trap
totiter = 837295
traniter = 835886
tranpoints = 95781
accept = 31519
rejected = 69587
matrix size = 82
fillins = 496
solver = Normal
Thread vector: 13.7/9.8[2] 2.7/2.1[2] 4.7/1.8[2] 1.0/1.7[1]  2592/500
Matrix Compiler1: 44.4 KB object code size  7.7/4.0/[2.2]
Matrix Compiler2: 15.5 KB object code size  3.9/3.1/[1.6]


