Circuit: * \\psf\Home\Documents\Lettuce Buddy HW\HealthyEC\LTSpice\miniEC_WienBridgeWithFG_V1.asc

WARNING: Less than two connections to node -5V.  This node is used by V2.
Direct Newton iteration for .op point succeeded.

Date: Wed Sep 03 08:49:05 2014
Total elapsed time: 0.204 seconds.

tnom = 27
temp = 27
method = modified trap
totiter = 18349
traniter = 18336
tranpoints = 6391
accept = 4357
rejected = 2034
matrix size = 17
fillins = 7
solver = Normal
Matrix Compiler1: 1.35 KB object code size  0.5/0.3/[0.3]
Matrix Compiler2: 1.59 KB object code size  0.3/0.4/[0.3]


