Circuit: * \\psf\Home\Documents\Lettuce Buddy HW\HealthyEC\LTSpice\miniEC_WienBridgeWithFG_V2.asc

Direct Newton iteration for .op point succeeded.
Heightened Def Con from 7.16688e-007 to 7.16688e-007
Heightened Def Con from 7.16688e-007 to 7.16688e-007
Heightened Def Con from 7.16688e-007 to 7.18688e-007
Heightened Def Con from 7.28481e-007 to 7.30481e-007
Heightened Def Con from 7.43563e-007 to 7.43563e-007
Heightened Def Con from 7.43563e-007 to 7.43563e-007
Heightened Def Con from 7.43563e-007 +++++to 7.44563e-007
Heightened Def Con from 7.44563e-007 to 7.46563e-007
Heightened Def Con from 8.26106e-007 to 8.26106e-007
Heightened Def Con from 8.26107e-007 to 8.28107e-007
Heightened Def Con from 8.92616e-007 to 8.92616e-007
Heightened Def Con from 8.92616e-007 +to 8.92616e-007
Heightened Def Con from 8.92616e-007 +to 8.92632e-007
Heightened Def Con from 9.13904e-007 to 9.13935e-007
Heightened Def Con from 9.14223e-007 to 9.16223e-007
Heightened Def Con from 1.72752e-006 to 1.72752e-006
Heightened Def Con from 1.72752e-006 ++to 1.72752e-006
Heightened Def Con from 1.72752e-006 to 1.72765e-006
Heightened Def Con from 1.72765e-006 ++to 1.72765e-006
Heightened Def Con from 1.72765e-006 +to 1.72777e-006
Heightened Def Con from 1.72777e-006 to 1.7279e-006
Heightened Def Con from 1.7279e-006 to 1.72902e-006
Heightened Def Con from 1.72902e-006 ++to 1.72902e-006
Heightened Def Con from 1.72902e-006 to 1.72915e-006
Heightened Def Con from 1.72915e-006 to 1.72928e-006
Heightened Def Con from 1.72928e-006 to 1.72928e-006
Heightened Def Con from 1.72928e-006 to 1.72928e-006
Heightened Def Con from 1.72928e-006 to 1.7294e-006
Heightened Def Con from 1.7294e-006 to 1.7294e-006
Heightened Def Con from 1.7294e-006 to 1.72953e-006
Heightened Def Con from 1.72953e-006 to 1.72965e-006
Heightened Def Con from 1.72965e-006 to 1.73067e-006
Heightened Def Con from 1.73067e-006 to 1.7308e-006
Heightened Def Con from 1.7308e-006 +to 1.7308e-006
Heightened Def Con from 1.7308e-006 to 1.7308e-006
Heightened Def Con from 1.7308e-006 to 1.7308e-006
Heightened Def Con from 1.7308e-006 to 1.7308e-006
Heightened Def Con from 1.7308e-006 to 1.7318e-006
Heightened Def Con from 1.7318e-006 +to 1.73192e-006
Heightened Def Con from 1.73192e-006 to 1.73192e-006
Heightened Def Con from 1.73192e-006 to 1.73205e-006
Heightened Def Con from 1.73205e-006 to 1.73306e-006
Heightened Def Con from 1.73307e-006 to 1.73307e-006
Heightened Def Con from 1.73307e-006 to 1.73307e-006
Heightened Def Con from 1.73307e-006 to 1.73307e-006
Heightened Def Con from 1.73307e-006 to 1.73307e-006
Heightened Def Con from 1.73307e-006 to 1.73319e-006
Heightened Def Con from 1.73319e-006 to 1.73319e-006
Heightened Def Con from 1.73319e-006 to 1.73432e-006
Heightened Def Con from 1.73436e-006 to 1.73436e-006
Heightened Def Con from 1.73436e-006 to 1.73436e-006
Heightened Def Con from 1.73436e-006 to 1.73436e-006
Heightened Def Con from 1.73436e-006 ++++to 1.73448e-006
Heightened Def Con from 1.73451e-006 to 1.73451e-006
Heightened Def Con from 1.73451e-006 to 1.73464e-006
Heightened Def Con from 1.73464e-006 +to 1.73464e-006
Heightened Def Con from 1.73464e-006 to 1.73477e-006
Heightened Def Con from 1.73477e-006 to 1.73477e-006
Heightened Def Con from 1.73477e-006 to 1.73677e-006
Heightened Def Con from 1.7368e-006 +to 1.7368e-006
Heightened Def Con from 1.7368e-006 to 1.73692e-006
Heightened Def Con from 1.73692e-006 to 1.73692e-006
Heightened Def Con from 1.73692e-006 to 1.73692e-006
Heightened Def Con from 1.73692e-006 to 1.73692e-006
Heightened Def Con from 1.73692e-006 +to 1.73705e-006
Heightened Def Con from 1.73705e-006 to 1.73717e-006
Heightened Def Con from 1.73718e-006 to 1.73819e-006
Heightened Def Con from 1.73819e-006 to 1.73819e-006
Heightened Def Con from 1.73819e-006 to 1.73921e-006
Heightened Def Con from 1.73922e-006 +to 1.73922e-006
Heightened Def Con from 1.73922e-006 to 1.73935e-006
Heightened Def Con from 1.73935e-006 to 1.73947e-006
Heightened Def Con from 1.73947e-006 to 1.7406e-006
Heightened Def Con from 1.7406e-006 to 1.7406e-006
Heightened Def Con from 1.7406e-006 to 1.7406e-006
Heightened Def Con from 1.7406e-006 to 1.7406e-006
Heightened Def Con from 1.7406e-006 to 1.7406e-006
Heightened Def Con from 1.7406e-006 to 1.7406e-006
Heightened Def Con from 1.7406e-006 +to 1.74072e-006
Heightened Def Con from 1.74147e-006 to 1.74147e-006
Heightened Def Con from 1.74147e-006 to 1.74147e-006
Heightened Def Con from 1.74147e-006 to 1.74147e-006
Heightened Def Con from 1.74147e-006 to 1.7426e-006
Heightened Def Con from 1.74264e-006 to 1.74264e-006
Heightened Def Con from 1.74264e-006 ++to 1.74264e-006
Heightened Def Con from 1.74264e-006 +to 1.74264e-006
Heightened Def Con from 1.74264e-006 to 1.74264e-006
Heightened Def Con from 1.74264e-006 to 1.74265e-006
Heightened Def Con from 1.74265e-006 to 1.74278e-006
Heightened Def Con from 1.74278e-006 to 1.74278e-006
Heightened Def Con from 1.74278e-006 to 1.74278e-006
Heightened Def Con from 1.74278e-006 +to 1.74278e-006
Heightened Def Con from 1.74278e-006 to 1.74291e-006
Heightened Def Con from 1.74291e-006 to 1.74303e-006
Heightened Def Con from 1.74303e-006 ++to 1.74303e-006
Heightened Def Con from 1.74303e-006 to 1.74503e-006
Heightened Def Con from 1.74506e-006 to 1.74506e-006
Heightened Def Con from 1.74506e-006 ++to 1.74506e-006
Heightened Def Con from 1.74506e-006 +to 1.74506e-006
Heightened Def Con from 1.74506e-006 +to 1.74519e-006
Heightened Def Con from 1.74519e-006 to 1.74519e-006
Heightened Def Con from 1.74519e-006 to 1.74519e-006
Heightened Def Con from 1.74519e-006 to 1.74519e-006
Heightened Def Con from 1.74519e-006 to 1.74531e-006
Heightened Def Con from 1.74531e-006 to 1.74544e-006
Heightened Def Con from 1.74544e-006 to 1.74544e-006
Heightened Def Con from 1.74544e-006 to 1.74544e-006
Heightened Def Con from 1.74544e-006 to 1.74556e-006
Heightened Def Con from 1.74557e-006 to 1.74557e-006
Heightened Def Con from 1.74557e-006 to 1.74657e-006
Heightened Def Con from 1.74657e-006 +to 1.74657e-006
Heightened Def Con from 1.74657e-006 to 1.74657e-006
Heightened Def Con from 1.74657e-006 to 1.74757e-006
Heightened Def Con from 1.74757e-006 to 1.74757e-006
Heightened Def Con from 1.74757e-006 to 1.74757e-006
Heightened Def Con from 1.74757e-006 to 1.74869e-006
Heightened Def Con from 1.749e-006 to 1.749e-006
Heightened Def Con from 1.749e-006 to 1.74913e-006
Heightened Def Con from 1.74913e-006 to 1.75025e-006
Heightened Def Con from 1.75026e-006 to 1.75026e-006
Heightened Def Con from 1.75026e-006 to 1.75038e-006
Heightened Def Con from 1.75038e-006 to 1.75038e-006
Heightened Def Con from 1.75038e-006 to 1.75038e-006
Heightened Def Con from 1.75038e-006 +to 1.75151e-006
Heightened Def Con from 1.75226e-006 to 1.75226e-006
Heightened Def Con from 1.75226e-006 to 1.75238e-006
Heightened Def Con from 1.75238e-006 to 1.75238e-006
Heightened Def Con from 1.75238e-006 to 1.75238e-006
Heightened Def Con from 1.75238e-006 to 1.75251e-006
Heightened Def Con from 1.75251e-006 +to 1.75251e-006
Heightened Def Con from 1.75251e-006 to 1.75251e-006
Heightened Def Con from 1.75251e-006 to 1.75363e-006
Heightened Def Con from 1.75364e-006 to 1.75366e-006
Heightened Def Con from 1.75366e-006 to 1.75566e-006
Heightened Def Con from 1.75766e-006 to 1.75766e-006
Heightened Def Con from 1.75766e-006 to 1.75966e-006
Heightened Def Con from 1.76166e-006 to 1.76166e-006
Heightened Def Con from 1.76166e-006 to 1.76166e-006
Heightened Def Con from 1.76166e-006 +to 1.76166e-006
Heightened Def Con from 1.76166e-006 to 1.76166e-006
Heightened Def Con from 1.76166e-006 ++to 1.76166e-006
Heightened Def Con from 1.76166e-006 to 1.76166e-006
Heightened Def Con from 1.76166e-006 to 1.76166e-006
Heightened Def Con from 1.76166e-006 to 1.76279e-006
Heightened Def Con from 1.76281e-006 to 1.76294e-006
Heightened Def Con from 1.76294e-006 to 1.76294e-006
Heightened Def Con from 1.76294e-006 +to 1.76294e-006
Heightened Def Con from 1.76294e-006 to 1.76294e-006
Heightened Def Con from 1.76294e-006 to 1.76294e-006
Heightened Def Con from 1.76294e-006 to 1.76294e-006
Heightened Def Con from 1.76294e-006 to 1.76394e-006
Heightened Def Con from 1.76394e-006 to 1.76394e-006
Heightened Def Con from 1.76394e-006 to 1.76406e-006
Heightened Def Con from 1.76406e-006 +to 1.76406e-006
Heightened Def Con from 1.76406e-006 to 1.76419e-006
Heightened Def Con from 1.76419e-006 to 1.76431e-006
Heightened Def Con from 1.76431e-006 to 1.76533e-006
Heightened Def Con from 1.76533e-006 to 1.76533e-006
Heightened Def Con from 1.76533e-006 +to 1.76535e-006
Heightened Def Con from 1.76535e-006 to 1.76535e-006
Heightened Def Con from 1.76535e-006 to 1.76535e-006
Heightened Def Con from 1.76535e-006 +to 1.76535e-006
Heightened Def Con from 1.76535e-006 to 1.76548e-006
Heightened Def Con from 1.76548e-006 to 1.7656e-006
Heightened Def Con from 1.7656e-006 to 1.76662e-006
Heightened Def Con from 1.76662e-006 to 1.76675e-006
Heightened Def Con from 1.76675e-006 to 1.76787e-006
Heightened Def Con from 1.76788e-006 to 1.76801e-006
Heightened Def Con from 1.76801e-006 to 1.76801e-006
Heightened Def Con from 1.76801e-006 to 1.76902e-006
Heightened Def Con from 1.76903e-006 to 1.76915e-006
Heightened Def Con from 1.76915e-006 to 1.76915e-006
Heightened Def Con from 1.76915e-006 to 1.76915e-006
Heightened Def Con from 1.76915e-006 to 1.77115e-006
Heightened Def Con from 1.77119e-006 to 1.77119e-006
Heightened Def Con from 1.77119e-006 ++to 1.77119e-006
Heightened Def Con from 1.77119e-006 to 1.77119e-006
Heightened Def Con from 1.77119e-006 to 1.77119e-006
Heightened Def Con from 1.77119e-006 to 1.77131e-006
Heightened Def Con from 1.77131e-006 to 1.77133e-006
Heightened Def Con from 1.77133e-006 to 1.77245e-006
Heightened Def Con from 1.77246e-006 to 1.77246e-006
Heightened Def Con from 1.77246e-006 +to 1.77246e-006
Heightened Def Con from 1.77246e-006 to 1.77246e-006
Heightened Def Con from 1.77246e-006 to 1.77446e-006
Heightened Def Con from 1.77646e-006 to 1.77646e-006
Heightened Def Con from 1.77646e-006 +to 1.77646e-006
Heightened Def Con from 1.77646e-006 to 1.77648e-006
Heightened Def Con from 1.77648e-006 to 1.7766e-006
Heightened Def Con from 1.7766e-006 to 1.7766e-006
Heightened Def Con from 1.7766e-006 to 1.77673e-006
Heightened Def Con from 1.77673e-006 to 1.77673e-006
Heightened Def Con from 1.77673e-006 to 1.77673e-006
Heightened Def Con from 1.77673e-006 to 1.77673e-006
Heightened Def Con from 1.77673e-006 to 1.77873e-006
Heightened Def Con from 1.77876e-006 to 1.77876e-006
Heightened Def Con from 1.77876e-006 to 1.77889e-006
Heightened Def Con from 1.77889e-006 to 1.77901e-006
Heightened Def Con from 1.77901e-006 to 1.77901e-006
Heightened Def Con from 1.77901e-006 to 1.77901e-006
Heightened Def Con from 1.77901e-006 +to 1.77901e-006
Heightened Def Con from 1.77901e-006 to 1.77901e-006
Heightened Def Con from 1.77901e-006 to 1.78003e-006
Heightened Def Con from 1.78003e-006 to 1.78003e-006
Heightened Def Con from 1.78003e-006 +to 1.78003e-006
Heightened Def Con from 1.78003e-006 to 1.78016e-006
Heightened Def Con from 1.78016e-006 to 1.78029e-006
Heightened Def Con from 1.78029e-006 to 1.78029e-006
Heightened Def Con from 1.78029e-006 ++++to 1.78029e-006
Heightened Def Con from 1.78029e-006 to 1.78029e-006
Heightened Def Con from 1.78029e-006 ++++to 1.78129e-006
Heightened Def Con from 1.78379e-006 to 1.78379e-006
Heightened Def Con from 1.78379e-006 to 1.78391e-006
Heightened Def Con from 1.78391e-006 to 1.78391e-006
Heightened Def Con from 1.78391e-006 to 1.78404e-006
Heightened Def Con from 1.78404e-006 to 1.78404e-006
Heightened Def Con from 1.78404e-006 to 1.78416e-006
Heightened Def Con from 1.78416e-006 to 1.78416e-006
Heightened Def Con from 1.78416e-006 to 1.78429e-006
Heightened Def Con from 1.78429e-006 to 1.78541e-006
Heightened Def Con from 1.78545e-006 to 1.78658e-006
Heightened Def Con from 1.78658e-006 +to 1.78658e-006
Heightened Def Con from 1.78658e-006 to 1.78658e-006
Heightened Def Con from 1.78658e-006 to 1.78658e-006
Heightened Def Con from 1.78658e-006 to 1.78658e-006
Heightened Def Con from 1.78658e-006 to 1.78771e-006
Heightened Def Con from 1.78772e-006 +to 1.78772e-006
Heightened Def Con from 1.78772e-006 to 1.78784e-006
Heightened Def Con from 1.78784e-006 to 1.78797e-006
Heightened Def Con from 1.78797e-006 to 1.78797e-006
Heightened Def Con from 1.78797e-006 to 1.7881e-006
Heightened Def Con from 1.7881e-006 to 1.7881e-006
Heightened Def Con from 1.7881e-006 to 1.7881e-006
Heightened Def Con from 1.7881e-006 to 1.7901e-006
Heightened Def Con from 1.79013e-006 to 1.79013e-006
Heightened Def Con from 1.79013e-006 to 1.79025e-006
Heightened Def Con from 1.79025e-006 to 1.79025e-006
Heightened Def Con from 1.79025e-006 to 1.79025e-006
Heightened Def Con from 1.79025e-006 to 1.79038e-006
Heightened Def Con from 1.79038e-006 to 1.79038e-006
Heightened Def Con from 1.79038e-006 +to 1.79038e-006
Heightened Def Con from 1.79038e-006 ++to 1.79038e-006
Heightened Def Con from 1.79038e-006 to 1.7905e-006
Heightened Def Con from 1.79051e-006 to 1.79152e-006
Heightened Def Con from 1.79155e-006 to 1.79155e-006
Heightened Def Con from 1.79155e-006 to 1.79155e-006
Heightened Def Con from 1.79155e-006 to 1.79168e-006
Heightened Def Con from 1.79168e-006 to 1.79168e-006
Heightened Def Con from 1.79168e-006 to 1.79168e-006
Heightened Def Con from 1.79168e-006 to 1.7918e-006
Heightened Def Con from 1.7918e-006 to 1.79193e-006
Heightened Def Con from 1.79193e-006 to 1.79193e-006
Heightened Def Con from 1.79193e-006 to 1.79205e-006
Heightened Def Con from 1.79205e-006 to 1.79218e-006
Heightened Def Con from 1.79218e-006 to 1.79231e-006
Heightened Def Con from 1.79231e-006 to 1.79231e-006
Heightened Def Con from 1.79231e-006 to 1.79243e-006
Heightened Def Con from 1.79243e-006 to 1.79256e-006
Heightened Def Con from 1.79256e-006 to 1.79256e-006
Heightened Def Con from 1.79256e-006 to 1.79256e-006
Heightened Def Con from 1.79256e-006 to 1.79256e-006
Heightened Def Con from 1.79256e-006 to 1.79256e-006
Heightened Def Con from 1.79256e-006 to 1.79256e-006
Heightened Def Con from 1.79256e-006 to 1.79256e-006
Heightened Def Con from 1.79256e-006 to 1.79256e-006
Heightened Def Con from 1.79256e-006 to 1.79256e-006
Heightened Def Con from 1.79256e-006 to 1.79256e-006
Heightened Def Con from 1.79256e-006 to 1.79268e-006
Heightened Def Con from 1.79268e-006 to 1.79268e-006
Heightened Def Con from 1.79268e-006 +to 1.79268e-006
Heightened Def Con from 1.79268e-006 to 1.79268e-006
Heightened Def Con from 1.79268e-006 to 1.79268e-006
Heightened Def Con from 1.79268e-006 to 1.79268e-006
Heightened Def Con from 1.79268e-006 to 1.79268e-006
Heightened Def Con from 1.79268e-006 to 1.79381e-006
Heightened Def Con from 1.79381e-006 to 1.79394e-006
Heightened Def Con from 1.79394e-006 to 1.79394e-006
Heightened Def Con from 1.79394e-006 to 1.79394e-006
Heightened Def Con from 1.79394e-006 to 1.79406e-006
Heightened Def Con from 1.79407e-006 to 1.79419e-006
Heightened Def Con from 1.79419e-006 to 1.79419e-006
Heightened Def Con from 1.79419e-006 +to 1.79419e-006
Heightened Def Con from 1.79419e-006 to 1.79432e-006
Heightened Def Con from 1.79432e-006 ++to 1.79432e-006
Heightened Def Con from 1.79432e-006 to 1.79444e-006
Heightened Def Con from 1.79444e-006 to 1.79457e-006
Heightened Def Con from 1.79457e-006 +to 1.79457e-006
Heightened Def Con from 1.79457e-006 to 1.79469e-006
Heightened Def Con from 1.79469e-006 to 1.79482e-006
Heightened Def Con from 1.79482e-006 to 1.79595e-006
Heightened Def Con from 1.79598e-006 +to 1.79598e-006
Heightened Def Con from 1.79598e-006 to 1.79611e-006
Heightened Def Con from 1.79611e-006 to 1.79624e-006
Heightened Def Con from 1.79624e-006 to 1.79636e-006
Heightened Def Con from 1.79636e-006 to 1.79636e-006
Heightened Def Con from 1.79636e-006 to 1.79636e-006
Heightened Def Con from 1.79636e-006 to 1.79736e-006
Heightened Def Con from 1.79736e-006 to 1.79838e-006
Heightened Def Con from 1.79839e-006 to 1.79939e-006
Heightened Def Con from 1.79939e-006 to 1.79939e-006
Heightened Def Con from 1.79939e-006 to 1.79939e-006
Heightened Def Con from 1.79939e-006 +to 1.79939e-006
Heightened Def Con from 1.79939e-006 to 1.79951e-006
Heightened Def Con from 1.79952e-006 to 1.79952e-006
Heightened Def Con from 1.79952e-006 ++to 1.79952e-006
Heightened Def Con from 1.79952e-006 to 1.79952e-006
Heightened Def Con from 1.79952e-006 to 1.79952e-006
Heightened Def Con from 1.79952e-006 to 1.79952e-006
Heightened Def Con from 1.79952e-006 to 1.79952e-006
Heightened Def Con from 1.79952e-006 to 1.79952e-006
Heightened Def Con from 1.79952e-006 to 1.79953e-006
Heightened Def Con from 1.79953e-006 to 1.80066e-006
Heightened Def Con from 1.80067e-006 to 1.80079e-006
Heightened Def Con from 1.80079e-006 to 1.80079e-006
Heightened Def Con from 1.80079e-006 to 1.80079e-006
Heightened Def Con from 1.80079e-006 to 1.80079e-006
Heightened Def Con from 1.80079e-006 to 1.80079e-006
Heightened Def Con from 1.8008e-006 to 1.80092e-006
Heightened Def Con from 1.80092e-006 +to 1.80092e-006
Heightened Def Con from 1.80092e-006 to 1.80105e-006
Heightened Def Con from 1.80105e-006 to 1.80105e-006
Heightened Def Con from 1.80105e-006 ++to 1.80117e-006
Heightened Def Con from 1.80117e-006 to 1.80117e-006
Heightened Def Con from 1.80117e-006 +to 1.80117e-006
Heightened Def Con from 1.80117e-006 to 1.8013e-006
Heightened Def Con from 1.8013e-006 to 1.80242e-006
Heightened Def Con from 1.80246e-006 +to 1.80247e-006
Heightened Def Con from 1.80247e-006 to 1.80247e-006
Heightened Def Con from 1.80247e-006 to 1.80359e-006
Heightened Def Con from 1.8036e-006 to 1.8036e-006
Heightened Def Con from 1.8036e-006 to 1.8036e-006
Heightened Def Con from 1.8036e-006 to 1.80373e-006
Heightened Def Con from 1.80373e-006 to 1.80373e-006
Heightened Def Con from 1.80373e-006 to 1.80373e-006
Heightened Def Con from 1.80373e-006 to 1.80385e-006
Heightened Def Con from 1.80385e-006 to 1.80385e-006
Heightened Def Con from 1.80385e-006 to 1.80398e-006
Heightened Def Con from 1.80398e-006 to 1.80511e-006
Heightened Def Con from 1.80512e-006 +to 1.80512e-006
Heightened Def Con from 1.80512e-006 to 1.80524e-006
Heightened Def Con from 1.80524e-006 to 1.80537e-006
Heightened Def Con from 1.80537e-006 to 1.80537e-006
Heightened Def Con from 1.80537e-006 to 1.80649e-006
Heightened Def Con from 1.80653e-006 to 1.80753e-006
Heightened Def Con from 1.80753e-006 to 1.80753e-006
Heightened Def Con from 1.80753e-006 to 1.80866e-006
Heightened Def Con from 1.8087e-006 to 1.80882e-006
Heightened Def Con from 1.80882e-006 to 1.80995e-006
Heightened Def Con from 1.80995e-006 to 1.81008e-006
Heightened Def Con from 1.81008e-006 ++to 1.81008e-006
Heightened Def Con from 1.81008e-006 to 1.8102e-006
Heightened Def Con from 1.8102e-006 to 1.81033e-006
Heightened Def Con from 1.81033e-006 to 1.81033e-006
Heightened Def Con from 1.81033e-006 to 1.81045e-006
Heightened Def Con from 1.81046e-006 to 1.81046e-006
Heightened Def Con from 1.81046e-006 to 1.81046e-006
Heightened Def Con from 1.81046e-006 to 1.81058e-006
Heightened Def Con from 1.81058e-006 to 1.81058e-006
Heightened Def Con from 1.81058e-006 to 1.81071e-006
Heightened Def Con from 1.81071e-006 to 1.81083e-006
Heightened Def Con from 1.81083e-006 to 1.81196e-006
Heightened Def Con from 1.81308e-006 to 1.81308e-006
Heightened Def Con from 1.81308e-006 to 1.81421e-006
Heightened Def Con from 1.81425e-006 to 1.81437e-006
Heightened Def Con from 1.81437e-006 to 1.81439e-006
Heightened Def Con from 1.81439e-006 to 1.81439e-006
Heightened Def Con from 1.81439e-006 to 1.81452e-006
Heightened Def Con from 1.81452e-006 to 1.81452e-006
Heightened Def Con from 1.81452e-006 to 1.81452e-006
Heightened Def Con from 1.81452e-006 to 1.81464e-006
Heightened Def Con from 1.81464e-006 to 1.81477e-006
Heightened Def Con from 1.81477e-006 to 1.81477e-006
Heightened Def Con from 1.81477e-006 to 1.81477e-006
Heightened Def Con from 1.81477e-006 to 1.81589e-006
Heightened Def Con from 1.81593e-006 to 1.81606e-006
Heightened Def Con from 1.81606e-006 to 1.81606e-006
Heightened Def Con from 1.81606e-006 to 1.81618e-006
Heightened Def Con from 1.81618e-006 to 1.81618e-006
Heightened Def Con from 1.81618e-006 to 1.81631e-006
Heightened Def Con from 1.81631e-006 to 1.81643e-006
Heightened Def Con from 1.81643e-006 to 1.81843e-006
Heightened Def Con from 1.81847e-006 to 1.81859e-006
Heightened Def Con from 1.81859e-006 to 1.81859e-006
Heightened Def Con from 1.81859e-006 to 1.81859e-006
Heightened Def Con from 1.81859e-006 to 1.81859e-006
Heightened Def Con from 1.81859e-006 to 1.81972e-006
Heightened Def Con from 1.81976e-006 to 1.81988e-006
Heightened Def Con from 1.81988e-006 to 1.82001e-006
Heightened Def Con from 1.82001e-006 to 1.82001e-006
Heightened Def Con from 1.82001e-006 to 1.82001e-006
Heightened Def Con from 1.82001e-006 to 1.82001e-006
Heightened Def Con from 1.82001e-006 to 1.82201e-006
Heightened Def Con from 1.82205e-006 to 1.82217e-006
Heightened Def Con from 1.82217e-006 to 1.82217e-006
Heightened Def Con from 1.82217e-006 to 1.8223e-006
Heightened Def Con from 1.8223e-006 to 1.82342e-006
Heightened Def Con from 1.82344e-006 to 1.82356e-006
Heightened Def Con from 1.82356e-006 to 1.82369e-006
Heightened Def Con from 1.82369e-006 to 1.82381e-006
Heightened Def Con from 1.82381e-006 to 1.82381e-006
Heightened Def Con from 1.82381e-006 to 1.82494e-006
Heightened Def Con from 1.82495e-006 to 1.82495e-006
Heightened Def Con from 1.82495e-006 to 1.82495e-006
Heightened Def Con from 1.82495e-006 to 1.82508e-006
Heightened Def Con from 1.82508e-006 to 1.82508e-006
Heightened Def Con from 1.82508e-006 +to 1.8262e-006
Heightened Def Con from 1.8262e-006 to 1.8262e-006
Heightened Def Con from 1.8262e-006 to 1.8262e-006
Heightened Def Con from 1.8262e-006 to 1.8262e-006
Heightened Def Con from 1.8262e-006 to 1.8262e-006
Heightened Def Con from 1.8262e-006 +to 1.8262e-006
Heightened Def Con from 1.8262e-006 to 1.8262e-006
Heightened Def Con from 1.8262e-006 to 1.8262e-006
Heightened Def Con from 1.8262e-006 to 1.82722e-006
Heightened Def Con from 1.82722e-006 to 1.82735e-006
Heightened Def Con from 1.82735e-006 to 1.82847e-006
Heightened Def Con from 1.82851e-006 to 1.82964e-006
Heightened Def Con from 1.82965e-006 to 1.82977e-006
Heightened Def Con from 1.82978e-006 to 1.8299e-006
Heightened Def Con from 1.8299e-006 to 1.8299e-006
Heightened Def Con from 1.8299e-006 to 1.83003e-006
Heightened Def Con from 1.83003e-006 to 1.83003e-006
Heightened Def Con from 1.83003e-006 to 1.83003e-006
Heightened Def Con from 1.83003e-006 to 1.83003e-006
Heightened Def Con from 1.83003e-006 to 1.83015e-006
Heightened Def Con from 1.83015e-006 to 1.83028e-006
Heightened Def Con from 1.83028e-006 to 1.83028e-006
Heightened Def Con from 1.83028e-006 to 1.8304e-006
Heightened Def Con from 1.8304e-006 to 1.83053e-006
Heightened Def Con from 1.83053e-006 to 1.83053e-006
Heightened Def Con from 1.83053e-006 to 1.83053e-006
Heightened Def Con from 1.83053e-006 to 1.83066e-006
Heightened Def Con from 1.83066e-006 to 1.83066e-006
Heightened Def Con from 1.83066e-006 to 1.83066e-006
Heightened Def Con from 1.83066e-006 to 1.83067e-006
Heightened Def Con from 1.83067e-006 to 1.83067e-006
Heightened Def Con from 1.83067e-006 to 1.8308e-006
Heightened Def Con from 1.8308e-006 to 1.83092e-006
Heightened Def Con from 1.83092e-006 to 1.83105e-006
Heightened Def Con from 1.83105e-006 +to 1.83117e-006
Heightened Def Con from 1.83117e-006 to 1.83117e-006
Heightened Def Con from 1.83117e-006 ++to 1.83117e-006
Heightened Def Con from 1.83117e-006 to 1.8313e-006
Heightened Def Con from 1.8313e-006 to 1.83143e-006
Heightened Def Con from 1.83143e-006 to 1.83143e-006
Heightened Def Con from 1.83143e-006 to 1.83155e-006
Heightened Def Con from 1.83155e-006 to 1.83168e-006
Heightened Def Con from 1.83168e-006 to 1.83168e-006
Heightened Def Con from 1.83168e-006 to 1.83168e-006
Heightened Def Con from 1.83168e-006 to 1.8318e-006
Heightened Def Con from 1.8318e-006 to 1.8318e-006
Heightened Def Con from 1.83181e-006 to 1.83181e-006
Heightened Def Con from 1.83181e-006 to 1.83193e-006
Heightened Def Con from 1.83193e-006 to 1.83193e-006
Heightened Def Con from 1.83193e-006 to 1.83193e-006
Heightened Def Con from 1.83193e-006 to 1.83206e-006
Heightened Def Con from 1.83206e-006 to 1.83218e-006
Heightened Def Con from 1.83218e-006 to 1.83231e-006
Heightened Def Con from 1.83231e-006 to 1.83431e-006
Heightened Def Con from 1.83435e-006 to 1.83635e-006
Heightened Def Con from 1.83835e-006 to 1.83835e-006
Heightened Def Con from 1.83835e-006 to 1.83835e-006
Heightened Def Con from 1.83835e-006 to 1.83847e-006
Heightened Def Con from 1.83847e-006 to 1.83847e-006
Heightened Def Con from 1.83847e-006 to 1.83847e-006
Heightened Def Con from 1.83847e-006 to 1.83847e-006
Heightened Def Con from 1.83847e-006 to 1.8386e-006
Heightened Def Con from 1.8386e-006 to 1.83873e-006
Heightened Def Con from 1.83873e-006 to 1.83873e-006
Heightened Def Con from 1.83873e-006 to 1.83885e-006
Heightened Def Con from 1.83885e-006 to 1.83985e-006
Heightened Def Con from 1.83985e-006 to 1.83985e-006
Heightened Def Con from 1.83985e-006 to 1.83985e-006
Heightened Def Con from 1.83985e-006 to 1.83998e-006
Heightened Def Con from 1.83998e-006 to 1.83998e-006
Heightened Def Con from 1.83998e-006 to 1.83998e-006
Heightened Def Con from 1.83998e-006 to 1.8401e-006
Heightened Def Con from 1.8401e-006 to 1.84023e-006
Heightened Def Con from 1.84023e-006 to 1.84223e-006
Heightened Def Con from 1.84226e-006 to 1.84226e-006
Heightened Def Con from 1.84226e-006 to 1.84239e-006
Heightened Def Con from 1.84239e-006 to 1.84239e-006
Heightened Def Con from 1.84239e-006 to 1.84251e-006
Heightened Def Con from 1.84251e-006 to 1.84451e-006
Heightened Def Con from 1.84455e-006 to 1.84455e-006
Heightened Def Con from 1.84455e-006 to 1.84455e-006
Heightened Def Con from 1.84455e-006 to 1.84568e-006
Heightened Def Con from 1.84572e-006 to 1.84572e-006
Heightened Def Con from 1.84572e-006 to 1.84584e-006
Heightened Def Con from 1.84584e-006 to 1.84597e-006
Heightened Def Con from 1.84597e-006 to 1.84609e-006
Heightened Def Con from 1.84609e-006 to 1.84622e-006
Heightened Def Con from 1.84622e-006 to 1.84735e-006
Heightened Def Con from 1.84739e-006 to 1.84739e-006
Heightened Def Con from 1.84739e-006 to 1.84739e-006
Heightened Def Con from 1.84739e-006 to 1.84751e-006
Heightened Def Con from 1.84751e-006 to 1.84751e-006
Heightened Def Con from 1.84751e-006 to 1.84764e-006
Heightened Def Con from 1.84764e-006 to 1.84776e-006
Heightened Def Con from 1.84776e-006 to 1.84776e-006
Heightened Def Con from 1.84776e-006 to 1.84789e-006
Heightened Def Con from 1.84789e-006 to 1.84789e-006
Heightened Def Con from 1.84789e-006 to 1.84789e-006
Heightened Def Con from 1.84789e-006 to 1.84801e-006
Heightened Def Con from 1.84801e-006 to 1.84801e-006
Heightened Def Con from 1.84801e-006 to 1.84802e-006
Heightened Def Con from 1.84802e-006 to 1.84814e-006
Heightened Def Con from 1.84814e-006 to 1.84827e-006
Heightened Def Con from 1.84827e-006 to 1.84827e-006
Heightened Def Con from 1.84827e-006 to 1.85027e-006
Heightened Def Con from 1.8503e-006 to 1.85142e-006
Heightened Def Con from 1.85146e-006 to 1.85159e-006
Heightened Def Con from 1.85159e-006 to 1.85171e-006
Heightened Def Con from 1.85171e-006 to 1.85171e-006
Heightened Def Con from 1.85171e-006 to 1.85184e-006
Heightened Def Con from 1.85184e-006 to 1.85196e-006
Heightened Def Con from 1.85197e-006 to 1.85197e-006
Heightened Def Con from 1.85197e-006 +to 1.85297e-006
Heightened Def Con from 1.85297e-006 to 1.85309e-006
Heightened Def Con from 1.85309e-006 to 1.85322e-006
Heightened Def Con from 1.85322e-006 to 1.85322e-006
Heightened Def Con from 1.85322e-006 to 1.85334e-006
Heightened Def Con from 1.85334e-006 to 1.85347e-006
Heightened Def Con from 1.85347e-006 to 1.85447e-006
Heightened Def Con from 1.85447e-006 to 1.85459e-006
Heightened Def Con from 1.85459e-006 to 1.85472e-006
Heightened Def Con from 1.85472e-006 to 1.85485e-006
Heightened Def Con from 1.85485e-006 to 1.85485e-006
Heightened Def Con from 1.85485e-006 to 1.85497e-006
Heightened Def Con from 1.85497e-006 ++to 1.85497e-006
Heightened Def Con from 1.85497e-006 to 1.85497e-006
Heightened Def Con from 1.85497e-006 to 1.8551e-006
Heightened Def Con from 1.8551e-006 to 1.8551e-006
Heightened Def Con from 1.8551e-006 to 1.85522e-006
Heightened Def Con from 1.85522e-006 to 1.85522e-006
Heightened Def Con from 1.85522e-006 to 1.85535e-006
Heightened Def Con from 1.85535e-006 to 1.85548e-006
Heightened Def Con from 1.85548e-006 to 1.85548e-006
Heightened Def Con from 1.85548e-006 to 1.8556e-006
Heightened Def Con from 1.8556e-006 to 1.8556e-006
Heightened Def Con from 1.8556e-006 to 1.8556e-006
Heightened Def Con from 1.8556e-006 to 1.85573e-006
Heightened Def Con from 1.85573e-006 to 1.85585e-006
Heightened Def Con from 1.85585e-006 to 1.85598e-006
Heightened Def Con from 1.85598e-006 to 1.85598e-006
Heightened Def Con from 1.85598e-006 to 1.85611e-006
Heightened Def Con from 1.85611e-006 to 1.85623e-006
Heightened Def Con from 1.85623e-006 to 1.85623e-006
Heightened Def Con from 1.85623e-006 to 1.85823e-006
Heightened Def Con from 1.85827e-006 to 1.85827e-006
Heightened Def Con from 1.85827e-006 to 1.8584e-006
Heightened Def Con from 1.8584e-006 to 1.85841e-006
Heightened Def Con from 1.85841e-006 to 1.86041e-006
Heightened Def Con from 1.86264e-006 to 1.86277e-006
Heightened Def Con from 1.86277e-006 to 1.86289e-006
Heightened Def Con from 1.86289e-006 to 1.86302e-006
Heightened Def Con from 1.86302e-006 to 1.86414e-006
Heightened Def Con from 1.86418e-006 to 1.86431e-006
Heightened Def Con from 1.86431e-006 to 1.86431e-006
Heightened Def Con from 1.86431e-006 ++to 1.86431e-006
Heightened Def Con from 1.86431e-006 to 1.86443e-006
Heightened Def Con from 1.86443e-006 to 1.86543e-006
Heightened Def Con from 1.86543e-006 to 1.86556e-006
Heightened Def Con from 1.86556e-006 to 1.86556e-006
Heightened Def Con from 1.86556e-006 to 1.86568e-006
Heightened Def Con from 1.86568e-006 to 1.86568e-006
Heightened Def Con from 1.86568e-006 to 1.86681e-006
Heightened Def Con from 1.86756e-006 to 1.86756e-006
Heightened Def Con from 1.86756e-006 to 1.86756e-006
Heightened Def Con from 1.86756e-006 to 1.86856e-006
Heightened Def Con from 1.86856e-006 to 1.86869e-006
Heightened Def Con from 1.86869e-006 to 1.86869e-006
Heightened Def Con from 1.86869e-006 to 1.86881e-006
Heightened Def Con from 1.86881e-006 to 1.86894e-006
Heightened Def Con from 1.86894e-006 to 1.86894e-006
Heightened Def Con from 1.86894e-006 to 1.86894e-006
Heightened Def Con from 1.86894e-006 to 1.86906e-006
Heightened Def Con from 1.86906e-006 to 1.86919e-006
Heightened Def Con from 1.86919e-006 to 1.86919e-006
Heightened Def Con from 1.86919e-006 to 1.86931e-006
Heightened Def Con from 1.86932e-006 to 1.86932e-006
Heightened Def Con from 1.86932e-006 to 1.86944e-006
Heightened Def Con from 1.86944e-006 to 1.86957e-006
Heightened Def Con from 1.86957e-006 to 1.86969e-006
Heightened Def Con from 1.86969e-006 to 1.86982e-006
Heightened Def Con from 1.86982e-006 to 1.87182e-006
Heightened Def Con from 1.87185e-006 to 1.87297e-006
Heightened Def Con from 1.87301e-006 to 1.87314e-006
Heightened Def Con from 1.87314e-006 to 1.87327e-006
Heightened Def Con from 1.87327e-006 to 1.87327e-006
Heightened Def Con from 1.87327e-006 to 1.87327e-006
Heightened Def Con from 1.87327e-006 to 1.87527e-006
Heightened Def Con from 1.87531e-006 to 1.87531e-006
Heightened Def Con from 1.87531e-006 to 1.87543e-006
Heightened Def Con from 1.87543e-006 to 1.87556e-006
Heightened Def Con from 1.87556e-006 to 1.87556e-006
Heightened Def Con from 1.87556e-006 to 1.87568e-006
Heightened Def Con from 1.87568e-006 to 1.87568e-006
Heightened Def Con from 1.87568e-006 to 1.87768e-006
Heightened Def Con from 1.87772e-006 to 1.87772e-006
Heightened Def Con from 1.87772e-006 to 1.87772e-006
Heightened Def Con from 1.87772e-006 to 1.87772e-006
Heightened Def Con from 1.87772e-006 to 1.87885e-006
Heightened Def Con from 1.8796e-006 to 1.87972e-006
Heightened Def Con from 1.87972e-006 to 1.87985e-006
Heightened Def Con from 1.87985e-006 to 1.87997e-006
Heightened Def Con from 1.87997e-006 to 1.8801e-006
Heightened Def Con from 1.8801e-006 to 1.8801e-006
Heightened Def Con from 1.8801e-006 to 1.8801e-006
Heightened Def Con from 1.8801e-006 to 1.8801e-006
Heightened Def Con from 1.8801e-006 to 1.88023e-006
Heightened Def Con from 1.88023e-006 to 1.88035e-006
Heightened Def Con from 1.88035e-006 to 1.88035e-006
Heightened Def Con from 1.88035e-006 to 1.88035e-006
Heightened Def Con from 1.88035e-006 to 1.88048e-006
Heightened Def Con from 1.88048e-006 to 1.88048e-006
Heightened Def Con from 1.88048e-006 to 1.88048e-006
Heightened Def Con from 1.88048e-006 to 1.8806e-006
Heightened Def Con from 1.8806e-006 to 1.8816e-006
Heightened Def Con from 1.8816e-006 to 1.88173e-006
Heightened Def Con from 1.88173e-006 ++to 1.88173e-006
Heightened Def Con from 1.88173e-006 to 1.88186e-006
Heightened Def Con from 1.88186e-006 to 1.88286e-006
Heightened Def Con from 1.88286e-006 to 1.88398e-006
Heightened Def Con from 1.88402e-006 to 1.88415e-006
Heightened Def Con from 1.88415e-006 to 1.88415e-006
Heightened Def Con from 1.88415e-006 to 1.88427e-006
Heightened Def Con from 1.88427e-006 to 1.8844e-006
Heightened Def Con from 1.8844e-006 to 1.8844e-006
Heightened Def Con from 1.8844e-006 to 1.88465e-006
Heightened Def Con from 1.88546e-006 to 1.88546e-006
Heightened Def Con from 1.88546e-006 to 1.88546e-006
Heightened Def Con from 1.88546e-006 to 1.88546e-006
Heightened Def Con from 1.88546e-006 to 1.88559e-006
Heightened Def Con from 1.88559e-006 to 1.88571e-006
Heightened Def Con from 1.88571e-006 to 1.88571e-006
Heightened Def Con from 1.88571e-006 to 1.88571e-006
Heightened Def Con from 1.88571e-006 to 1.88584e-006
Heightened Def Con from 1.88584e-006 to 1.88597e-006
Heightened Def Con from 1.88597e-006 +to 1.88697e-006
Heightened Def Con from 1.88697e-006 to 1.88709e-006
Heightened Def Con from 1.88709e-006 to 1.88722e-006
Heightened Def Con from 1.88722e-006 to 1.88734e-006
Heightened Def Con from 1.88734e-006 to 1.88747e-006
Heightened Def Con from 1.88747e-006 ++to 1.88747e-006
Heightened Def Con from 1.88747e-006 to 1.88759e-006
Heightened Def Con from 1.88759e-006 to 1.88772e-006
Heightened Def Con from 1.88772e-006 to 1.88785e-006
Heightened Def Con from 1.88785e-006 to 1.88785e-006
Heightened Def Con from 1.88785e-006 to 1.88797e-006
Heightened Def Con from 1.88797e-006 to 1.8881e-006
Heightened Def Con from 1.8881e-006 to 1.88822e-006
Heightened Def Con from 1.88822e-006 to 1.88822e-006
Heightened Def Con from 1.88822e-006 to 1.88935e-006
Heightened Def Con from 1.8901e-006 to 1.89022e-006
Heightened Def Con from 1.89022e-006 to 1.89022e-006
Heightened Def Con from 1.89022e-006 to 1.89024e-006
Heightened Def Con from 1.89024e-006 to 1.89037e-006
Heightened Def Con from 1.89037e-006 to 1.89037e-006
Heightened Def Con from 1.89037e-006 to 1.89137e-006
Heightened Def Con from 1.89137e-006 to 1.89137e-006
Heightened Def Con from 1.89137e-006 to 1.89149e-006
Heightened Def Con from 1.89149e-006 to 1.89149e-006
Heightened Def Con from 1.89149e-006 to 1.89162e-006
Heightened Def Con from 1.89162e-006 to 1.89162e-006
Heightened Def Con from 1.89162e-006 to 1.89175e-006
Heightened Def Con from 1.89175e-006 to 1.89187e-006
Heightened Def Con from 1.89187e-006 to 1.892e-006
Heightened Def Con from 1.892e-006 to 1.892e-006
Heightened Def Con from 1.892e-006 to 1.89212e-006
Heightened Def Con from 1.89212e-006 to 1.89225e-006
Heightened Def Con from 1.89225e-006 to 1.89325e-006
Heightened Def Con from 1.89325e-006 to 1.89325e-006
Heightened Def Con from 1.89325e-006 to 1.89338e-006
Heightened Def Con from 1.89338e-006 to 1.8935e-006
Heightened Def Con from 1.8935e-006 to 1.89363e-006
Heightened Def Con from 1.89363e-006 to 1.89363e-006
Heightened Def Con from 1.89363e-006 to 1.89363e-006
Heightened Def Con from 1.89363e-006 to 1.89375e-006
Heightened Def Con from 1.89375e-006 to 1.89388e-006
Heightened Def Con from 1.89388e-006 to 1.894e-006
Heightened Def Con from 1.894e-006 to 1.894e-006
Heightened Def Con from 1.894e-006 to 1.89413e-006
Heightened Def Con from 1.89413e-006 to 1.89425e-006
Heightened Def Con from 1.89425e-006 to 1.89625e-006
Heightened Def Con from 1.89825e-006 to 1.89838e-006
Heightened Def Con from 1.89838e-006 to 1.89838e-006
Heightened Def Con from 1.89838e-006 to 1.89851e-006
Heightened Def Con from 1.89851e-006 to 1.89851e-006
Heightened Def Con from 1.89851e-006 to 1.90051e-006
Heightened Def Con from 2.82619e-006 to 2.82644e-006
Heightened Def Con from 2.83764e-006 to 2.83764e-006
Heightened Def Con from 2.83764e-006 to 2.83864e-006
Heightened Def Con from 2.83864e-006 to 2.83864e-006
Heightened Def Con from 2.83864e-006 to 2.83864e-006
Heightened Def Con from 2.83864e-006 +to 2.83864e-006
Heightened Def Con from 2.83864e-006 ++to 2.84064e-006
Heightened Def Con from 2.84064e-006 to 2.84064e-006
Heightened Def Con from 2.84064e-006 to 2.84064e-006
Heightened Def Con from 2.84064e-006 to 2.84064e-006
Heightened Def Con from 2.84064e-006 to 2.84064e-006
Heightened Def Con from 2.84064e-006 +to 2.84064e-006
Heightened Def Con from 2.84064e-006 to 2.84064e-006
Heightened Def Con from 2.84064e-006 to 2.84066e-006
Heightened Def Con from 2.84066e-006 to 2.84066e-006
Heightened Def Con from 2.84066e-006 to 2.84166e-006
Heightened Def Con from 2.84166e-006 to 2.84191e-006
Heightened Def Con from 2.84191e-006 to 2.84191e-006
Heightened Def Con from 2.84191e-006 to 2.84191e-006
Heightened Def Con from 2.84191e-006 to 2.84191e-006
Heightened Def Con from 2.84191e-006 to 2.84191e-006
Heightened Def Con from 2.84191e-006 +to 2.84193e-006
Heightened Def Con from 2.84193e-006 +to 2.84193e-006
Heightened Def Con from 2.84193e-006 to 2.84193e-006
Heightened Def Con from 2.84194e-006 to 2.84195e-006
Heightened Def Con from 2.84195e-006 +to 2.84195e-006
Heightened Def Con from 2.84195e-006 +to 2.84295e-006
Heightened Def Con from 2.84295e-006 to 2.84308e-006
Heightened Def Con from 2.84308e-006 to 2.84309e-006
Heightened Def Con from 2.8431e-006 to 2.84411e-006
Heightened Def Con from 2.84411e-006 to 2.84411e-006
Heightened Def Con from 2.84411e-006 to 2.84411e-006
Heightened Def Con from 2.84411e-006 +to 2.84424e-006
Heightened Def Con from 2.84427e-006 to 2.84441e-006
Heightened Def Con from 2.84441e-006 to 2.84441e-006
Heightened Def Con from 2.84441e-006 to 2.84441e-006
Heightened Def Con from 2.84441e-006 to 2.84441e-006
Heightened Def Con from 2.84441e-006 to 2.84441e-006
Heightened Def Con from 2.84441e-006 ++to 2.84442e-006
Heightened Def Con from 2.84442e-006 to 2.84442e-006
Heightened Def Con from 2.84442e-006 +to 2.84442e-006
Heightened Def Con from 2.84442e-006 to 2.84542e-006
Heightened Def Con from 2.84542e-006 to 2.84543e-006
Heightened Def Con from 2.84543e-006 to 2.84643e-006
Heightened Def Con from 2.84643e-006 to 2.84645e-006
Heightened Def Con from 2.84645e-006 to 2.84645e-006
Heightened Def Con from 2.84645e-006 to 2.84645e-006
Heightened Def Con from 2.84645e-006 to 2.8467e-006
Heightened Def Con from 2.84701e-006 +to 2.84801e-006
Heightened Def Con from 2.84801e-006 to 2.84801e-006
Heightened Def Con from 2.84801e-006 to 2.84903e-006
Heightened Def Con from 2.84903e-006 +to 2.84905e-006
Heightened Def Con from 2.84905e-006 to 2.8493e-006
Heightened Def Con from 2.8493e-006 to 2.8493e-006
Heightened Def Con from 2.8493e-006 to 2.8493e-006
Heightened Def Con from 2.8493e-006 to 2.8493e-006
Heightened Def Con from 2.8493e-006 +to 2.84932e-006
Heightened Def Con from 2.84932e-006 to 2.84932e-006
Heightened Def Con from 2.84932e-006 +to 2.84932e-006
Heightened Def Con from 2.84932e-006 to 2.84932e-006
Heightened Def Con from 2.84932e-006 to 2.84957e-006
Heightened Def Con from 2.84957e-006 to 2.84957e-006
Heightened Def Con from 2.84957e-006 ++to 2.84959e-006
Heightened Def Con from 2.84959e-006 to 2.84971e-006
Heightened Def Con from 2.84971e-006 +to 2.84971e-006
Heightened Def Con from 2.84971e-006 +to 2.84971e-006
Heightened Def Con from 2.84971e-006 +to 2.84971e-006
Heightened Def Con from 2.84971e-006 +to 2.85071e-006
Heightened Def Con from 2.85071e-006 +to 2.85071e-006
Heightened Def Con from 2.85071e-006 to 2.85071e-006
Heightened Def Con from 2.85071e-006 to 2.85073e-006
Heightened Def Con from 2.85073e-006 to 2.85173e-006
Heightened Def Con from 2.85173e-006 +to 2.85175e-006
Heightened Def Con from 2.85175e-006 +to 2.85175e-006
Heightened Def Con from 2.85175e-006 +to 2.85175e-006
Heightened Def Con from 2.85175e-006 to 2.85175e-006
Heightened Def Con from 2.85175e-006 to 2.85275e-006
Heightened Def Con from 2.85276e-006 ++to 2.85276e-006
Heightened Def Con from 2.85276e-006 +to 2.85288e-006
Heightened Def Con from 2.85291e-006 to 2.85291e-006
Heightened Def Con from 2.85291e-006 +to 2.85291e-006
Heightened Def Con from 2.85291e-006 to 2.85293e-006
Heightened Def Con from 2.85293e-006 to 2.85393e-006
Heightened Def Con from 2.85393e-006 to 2.85395e-006
Heightened Def Con from 2.85395e-006 to 2.85395e-006
Heightened Def Con from 2.85395e-006 ++to 2.85407e-006
Heightened Def Con from 2.85408e-006 to 2.85608e-006
Heightened Def Con from 2.85903e-006 to 2.86015e-006
Heightened Def Con from 2.86109e-006 to 2.86309e-006
Heightened Def Con from 2.8666e-006 to 2.8686e-006
Heightened Def Con from 2.87271e-006 to 2.87384e-006
Heightened Def Con from 2.88284e-006 to 2.88484e-006
Heightened Def Con from 2.88734e-006 to 2.88934e-006

Date: Wed Sep 03 08:52:56 2014
Total elapsed time: 1.389 seconds.

tnom = 27
temp = 27
method = modified trap
totiter = 159194
traniter = 159175
tranpoints = 22883
accept = 10026
rejected = 13768
matrix size = 33
fillins = 58
solver = Normal
Matrix Compiler1: 5.21 KB object code size  1.4/0.7/[0.5]
Matrix Compiler2: off  [0.5]/0.6/0.7


