Circuit: * \\psf\Home\Documents\Lettuce Buddy HW\HealthyEC\LTSpice\miniec_WienBridge_Parallel.asc

Direct Newton iteration for .op point succeeded.
Heightened Def Con from 6.29666e-007 to 6.31666e-007
Heightened Def Con from 6.69846e-007 +to 6.69846e-007
Heightened Def Con from 6.69846e-007 to 6.71846e-007
Heightened Def Con from 6.73577e-007 to 6.75577e-007
Heightened Def Con from 7.61872e-007 +to 7.61872e-007
Heightened Def Con from 7.61873e-007 to 7.61873e-007
Heightened Def Con from 7.61873e-007 to 7.63873e-007
Heightened Def Con from 7.73417e-007 to 7.75417e-007
Heightened Def Con from 1.72782e-006 to 1.72782e-006
Heightened Def Con from 1.72782e-006 to 1.72782e-006
Heightened Def Con from 1.72782e-006 to 1.72895e-006
Heightened Def Con from 1.72926e-006 +to 1.72926e-006
Heightened Def Con from 1.72926e-006 to 1.72926e-006
Heightened Def Con from 1.72926e-006 to 1.73026e-006
Heightened Def Con from 1.73026e-006 +to 1.73026e-006
Heightened Def Con from 1.73026e-006 to 1.73026e-006
Heightened Def Con from 1.73026e-006 to 1.73138e-006
Heightened Def Con from 1.73138e-006 +to 1.73151e-006
Heightened Def Con from 1.73174e-006 to 1.73174e-006
Heightened Def Con from 1.73174e-006 to 1.73174e-006
Heightened Def Con from 1.73174e-006 to 1.73286e-006
Heightened Def Con from 1.73311e-006 to 1.73311e-006
Heightened Def Con from 1.73311e-006 to 1.73413e-006
Heightened Def Con from 1.73413e-006 to 1.73413e-006
Heightened Def Con from 1.73413e-006 to 1.73426e-006
Heightened Def Con from 1.73426e-006 to 1.73426e-006
Heightened Def Con from 1.73426e-006 to 1.73626e-006
Heightened Def Con from 1.73628e-006 +to 1.73628e-006
Heightened Def Con from 1.73628e-006 to 1.73641e-006
Heightened Def Con from 1.73641e-006 ++to 1.73641e-006
Heightened Def Con from 1.73641e-006 to 1.73753e-006
Heightened Def Con from 1.73828e-006 +to 1.73828e-006
Heightened Def Con from 1.73828e-006 to 1.73841e-006
Heightened Def Con from 1.73841e-006 to 1.73841e-006
Heightened Def Con from 1.73841e-006 to 1.73841e-006
Heightened Def Con from 1.73841e-006 to 1.73841e-006
Heightened Def Con from 1.73841e-006 to 1.73941e-006
Heightened Def Con from 1.73941e-006 to 1.73941e-006
Heightened Def Con from 1.73941e-006 +to 1.73941e-006
Heightened Def Con from 1.73941e-006 to 1.73953e-006
Heightened Def Con from 1.73953e-006 to 1.73953e-006
Heightened Def Con from 1.73953e-006 to 1.73966e-006
Heightened Def Con from 1.73966e-006 to 1.74078e-006
Heightened Def Con from 1.74079e-006 to 1.74091e-006
Heightened Def Con from 1.74091e-006 to 1.74093e-006
Heightened Def Con from 1.74093e-006 +to 1.74093e-006
Heightened Def Con from 1.74093e-006 to 1.74105e-006
Heightened Def Con from 1.74105e-006 to 1.74207e-006
Heightened Def Con from 1.74207e-006 to 1.74207e-006
Heightened Def Con from 1.74207e-006 to 1.74309e-006
Heightened Def Con from 1.74309e-006 ++to 1.74309e-006
Heightened Def Con from 1.74309e-006 to 1.74322e-006
Heightened Def Con from 1.74322e-006 to 1.74522e-006
Heightened Def Con from 1.74522e-006 +to 1.74622e-006
Heightened Def Con from 1.74622e-006 to 1.74634e-006
Heightened Def Con from 1.74634e-006 +to 1.74647e-006
Heightened Def Con from 1.74647e-006 to 1.7476e-006
Heightened Def Con from 1.7476e-006 to 1.7476e-006
Heightened Def Con from 1.7476e-006 to 1.7476e-006
Heightened Def Con from 1.7476e-006 to 1.7476e-006
Heightened Def Con from 1.7476e-006 to 1.74872e-006
Heightened Def Con from 1.74873e-006 +to 1.74885e-006
Heightened Def Con from 1.74885e-006 to 1.74998e-006
Heightened Def Con from 1.75023e-006 +to 1.75023e-006
Heightened Def Con from 1.75023e-006 to 1.75036e-006
Heightened Def Con from 1.75036e-006 to 1.75048e-006
Heightened Def Con from 1.75048e-006 +to 1.75048e-006
Heightened Def Con from 1.75048e-006 to 1.75061e-006
Heightened Def Con from 1.75061e-006 +to 1.75061e-006
Heightened Def Con from 1.75061e-006 to 1.75073e-006
Heightened Def Con from 1.75073e-006 to 1.75073e-006
Heightened Def Con from 1.75073e-006 to 1.75186e-006
Heightened Def Con from 1.7519e-006 to 1.7519e-006
Heightened Def Con from 1.7519e-006 to 1.7519e-006
Heightened Def Con from 1.7519e-006 to 1.7519e-006
Heightened Def Con from 1.7519e-006 to 1.7519e-006
Heightened Def Con from 1.7519e-006 to 1.75202e-006
Heightened Def Con from 1.75202e-006 to 1.75202e-006
Heightened Def Con from 1.75202e-006 to 1.75202e-006
Heightened Def Con from 1.75202e-006 to 1.75202e-006
Heightened Def Con from 1.75202e-006 to 1.75315e-006
Heightened Def Con from 1.75319e-006 +++to 1.75319e-006
Heightened Def Con from 1.75319e-006 to 1.75332e-006
Heightened Def Con from 1.75332e-006 +to 1.75332e-006
Heightened Def Con from 1.75332e-006 to 1.75344e-006
Heightened Def Con from 1.75344e-006 +to 1.75357e-006
Heightened Def Con from 1.75368e-006 to 1.7548e-006
Heightened Def Con from 1.75571e-006 to 1.75572e-006
Heightened Def Con from 1.75572e-006 to 1.75572e-006
Heightened Def Con from 1.75572e-006 to 1.75572e-006
Heightened Def Con from 1.75572e-006 to 1.75572e-006
Heightened Def Con from 1.75572e-006 +to 1.75585e-006
Heightened Def Con from 1.75585e-006 to 1.75697e-006
Heightened Def Con from 1.75698e-006 +to 1.75698e-006
Heightened Def Con from 1.75698e-006 +to 1.75699e-006
Heightened Def Con from 1.75699e-006 to 1.75711e-006
Heightened Def Con from 1.75711e-006 to 1.75711e-006
Heightened Def Con from 1.75711e-006 +++to 1.75711e-006
Heightened Def Con from 1.75711e-006 to 1.75711e-006
Heightened Def Con from 1.75711e-006 to 1.75811e-006
Heightened Def Con from 1.75811e-006 to 1.75811e-006
Heightened Def Con from 1.75811e-006 to 1.75811e-006
Heightened Def Con from 1.75811e-006 to 1.75824e-006
Heightened Def Con from 1.75824e-006 to 1.75825e-006
Heightened Def Con from 1.75825e-006 to 1.75825e-006
Heightened Def Con from 1.75825e-006 +to 1.75838e-006
Heightened Def Con from 1.75863e-006 to 1.75863e-006
Heightened Def Con from 1.75863e-006 +to 1.75863e-006
Heightened Def Con from 1.75863e-006 to 1.75875e-006
Heightened Def Con from 1.75875e-006 to 1.75875e-006
Heightened Def Con from 1.75875e-006 +to 1.75875e-006
Heightened Def Con from 1.75875e-006 to 1.75875e-006
Heightened Def Con from 1.75875e-006 to 1.75875e-006
Heightened Def Con from 1.75875e-006 to 1.75977e-006
Heightened Def Con from 1.75978e-006 ++to 1.75978e-006
Heightened Def Con from 1.75978e-006 to 1.75991e-006
Heightened Def Con from 1.75991e-006 ++to 1.75991e-006
Heightened Def Con from 1.75991e-006 to 1.76003e-006
Heightened Def Con from 1.76003e-006 to 1.76003e-006
Heightened Def Con from 1.76003e-006 +to 1.76003e-006
Heightened Def Con from 1.76003e-006 to 1.76003e-006
Heightened Def Con from 1.76003e-006 to 1.76003e-006
Heightened Def Con from 1.76003e-006 to 1.76116e-006
Heightened Def Con from 1.76228e-006 to 1.76228e-006
Heightened Def Con from 1.76228e-006 to 1.76428e-006
Heightened Def Con from 1.7645e-006 to 1.76552e-006
Heightened Def Con from 1.76552e-006 to 1.76654e-006
Heightened Def Con from 1.76654e-006 to 1.76667e-006
Heightened Def Con from 1.76667e-006 +to 1.76667e-006
Heightened Def Con from 1.76667e-006 to 1.76867e-006
Heightened Def Con from 1.77782e-006 to 1.77794e-006
Heightened Def Con from 1.77794e-006 to 1.77794e-006
Heightened Def Con from 1.77794e-006 to 1.77794e-006
Heightened Def Con from 1.77794e-006 ++to 1.77794e-006
Heightened Def Con from 1.77794e-006 to 1.77794e-006
Heightened Def Con from 1.77794e-006 to 1.77907e-006
Heightened Def Con from 1.77907e-006 to 1.77907e-006
Heightened Def Con from 1.77907e-006 to 1.77907e-006
Heightened Def Con from 1.77907e-006 +to 1.7792e-006
Heightened Def Con from 1.78001e-006 to 1.78001e-006
Heightened Def Con from 1.78001e-006 to 1.78013e-006
Heightened Def Con from 1.78013e-006 to 1.78026e-006
Heightened Def Con from 1.78026e-006 +to 1.78026e-006
Heightened Def Con from 1.78026e-006 to 1.78026e-006
Heightened Def Con from 1.78026e-006 to 1.78026e-006
Heightened Def Con from 1.78026e-006 to 1.78026e-006
Heightened Def Con from 1.78026e-006 to 1.78038e-006
Heightened Def Con from 1.78038e-006 to 1.78151e-006
Heightened Def Con from 1.78226e-006 to 1.78226e-006
Heightened Def Con from 1.78226e-006 to 1.78226e-006
Heightened Def Con from 1.78226e-006 to 1.78226e-006
Heightened Def Con from 1.78226e-006 to 1.78338e-006
Heightened Def Con from 1.78339e-006 to 1.78451e-006
Heightened Def Con from 1.78483e-006 to 1.78483e-006
Heightened Def Con from 1.78483e-006 to 1.78483e-006
Heightened Def Con from 1.78483e-006 to 1.78495e-006
Heightened Def Con from 1.78495e-006 to 1.78495e-006
Heightened Def Con from 1.78495e-006 to 1.78495e-006
Heightened Def Con from 1.78495e-006 to 1.78595e-006
Heightened Def Con from 1.78595e-006 +to 1.78608e-006
Heightened Def Con from 1.78608e-006 to 1.78708e-006
Heightened Def Con from 1.78708e-006 to 1.7872e-006
Heightened Def Con from 1.7872e-006 ++to 1.7872e-006
Heightened Def Con from 1.7872e-006 ++to 1.7872e-006
Heightened Def Con from 1.7872e-006 to 1.7882e-006
Heightened Def Con from 1.7882e-006 to 1.7882e-006
Heightened Def Con from 1.7882e-006 to 1.7892e-006
Heightened Def Con from 1.7892e-006 to 1.79033e-006
Heightened Def Con from 1.79033e-006 to 1.79033e-006
Heightened Def Con from 1.79033e-006 to 1.79033e-006
Heightened Def Con from 1.79033e-006 to 1.79033e-006
Heightened Def Con from 1.79033e-006 to 1.79046e-006
Heightened Def Con from 1.79046e-006 to 1.79046e-006
Heightened Def Con from 1.79046e-006 to 1.79058e-006
Heightened Def Con from 1.79058e-006 to 1.79058e-006
Heightened Def Con from 1.79058e-006 to 1.79071e-006
Heightened Def Con from 1.79071e-006 to 1.79084e-006
Heightened Def Con from 1.79084e-006 to 1.79096e-006
Heightened Def Con from 1.79096e-006 to 1.79096e-006
Heightened Def Con from 1.79096e-006 to 1.79096e-006
Heightened Def Con from 1.79096e-006 to 1.79098e-006
Heightened Def Con from 1.79098e-006 to 1.79298e-006
Heightened Def Con from 1.79527e-006 to 1.79539e-006
Heightened Def Con from 1.79539e-006 to 1.79641e-006
Heightened Def Con from 1.79642e-006 to 1.79642e-006
Heightened Def Con from 1.79642e-006 to 1.79642e-006
Heightened Def Con from 1.79642e-006 to 1.79655e-006
Heightened Def Con from 1.79655e-006 to 1.79656e-006
Heightened Def Con from 1.79656e-006 to 1.79669e-006
Heightened Def Con from 1.79669e-006 to 1.79681e-006
Heightened Def Con from 1.79681e-006 to 1.79681e-006
Heightened Def Con from 1.79681e-006 to 1.79683e-006
Heightened Def Con from 1.79683e-006 +to 1.79683e-006
Heightened Def Con from 1.79683e-006 to 1.79683e-006
Heightened Def Con from 1.79683e-006 to 1.79796e-006
Heightened Def Con from 1.79796e-006 to 1.79796e-006
Heightened Def Con from 1.79796e-006 to 1.79796e-006
Heightened Def Con from 1.79796e-006 to 1.79808e-006
Heightened Def Con from 1.79809e-006 to 1.79809e-006
Heightened Def Con from 1.79809e-006 to 1.79809e-006
Heightened Def Con from 1.79809e-006 to 1.79821e-006
Heightened Def Con from 1.79821e-006 to 1.79834e-006
Heightened Def Con from 1.79834e-006 to 1.79834e-006
Heightened Def Con from 1.79834e-006 +to 1.79834e-006
Heightened Def Con from 1.79834e-006 to 1.79846e-006
Heightened Def Con from 1.79846e-006 to 1.79846e-006
Heightened Def Con from 1.79846e-006 to 1.79959e-006
Heightened Def Con from 1.79963e-006 to 1.79975e-006
Heightened Def Con from 1.79975e-006 +to 1.79975e-006
Heightened Def Con from 1.79975e-006 to 1.79975e-006
Heightened Def Con from 1.79975e-006 to 1.80088e-006
Heightened Def Con from 1.80092e-006 +to 1.80092e-006
Heightened Def Con from 1.80092e-006 to 1.80104e-006
Heightened Def Con from 1.80104e-006 to 1.80104e-006
Heightened Def Con from 1.80104e-006 to 1.80104e-006
Heightened Def Con from 1.80104e-006 to 1.80104e-006
Heightened Def Con from 1.80104e-006 to 1.80204e-006
Heightened Def Con from 1.80204e-006 to 1.80204e-006
Heightened Def Con from 1.80204e-006 to 1.80217e-006
Heightened Def Con from 1.80217e-006 to 1.8023e-006
Heightened Def Con from 1.8023e-006 to 1.8023e-006
Heightened Def Con from 1.8023e-006 ++to 1.8023e-006
Heightened Def Con from 1.8023e-006 to 1.80242e-006
Heightened Def Con from 1.80242e-006 to 1.80255e-006
Heightened Def Con from 1.80255e-006 to 1.80367e-006
Heightened Def Con from 1.80368e-006 to 1.80368e-006
Heightened Def Con from 1.80368e-006 +to 1.8038e-006
Heightened Def Con from 1.80383e-006 to 1.80383e-006
Heightened Def Con from 1.80383e-006 to 1.80383e-006
Heightened Def Con from 1.80383e-006 to 1.80383e-006
Heightened Def Con from 1.80383e-006 +to 1.80383e-006
Heightened Def Con from 1.80383e-006 to 1.80396e-006
Heightened Def Con from 1.80396e-006 to 1.80408e-006
Heightened Def Con from 1.80408e-006 to 1.80408e-006
Heightened Def Con from 1.80408e-006 to 1.80421e-006
Heightened Def Con from 1.80421e-006 to 1.80434e-006
Heightened Def Con from 1.80434e-006 +to 1.80434e-006
Heightened Def Con from 1.80434e-006 to 1.80446e-006
Heightened Def Con from 1.80446e-006 to 1.80459e-006
Heightened Def Con from 1.80459e-006 to 1.8056e-006
Heightened Def Con from 1.8056e-006 to 1.8056e-006
Heightened Def Con from 1.8056e-006 to 1.8056e-006
Heightened Def Con from 1.8056e-006 to 1.80573e-006
Heightened Def Con from 1.80573e-006 to 1.80573e-006
Heightened Def Con from 1.80573e-006 to 1.80573e-006
Heightened Def Con from 1.80573e-006 to 1.80685e-006
Heightened Def Con from 1.80687e-006 to 1.80687e-006
Heightened Def Con from 1.80687e-006 to 1.80687e-006
Heightened Def Con from 1.80687e-006 to 1.80687e-006
Heightened Def Con from 1.80687e-006 to 1.80699e-006
Heightened Def Con from 1.80699e-006 to 1.80712e-006
Heightened Def Con from 1.80712e-006 to 1.80712e-006
Heightened Def Con from 1.80712e-006 to 1.80724e-006
Heightened Def Con from 1.80724e-006 to 1.80724e-006
Heightened Def Con from 1.80724e-006 to 1.80737e-006
Heightened Def Con from 1.80737e-006 to 1.80737e-006
Heightened Def Con from 1.80737e-006 to 1.80737e-006
Heightened Def Con from 1.80737e-006 to 1.80737e-006
Heightened Def Con from 1.80737e-006 ++to 1.80737e-006
Heightened Def Con from 1.80737e-006 to 1.80749e-006
Heightened Def Con from 1.8075e-006 to 1.80862e-006
Heightened Def Con from 1.80862e-006 to 1.80862e-006
Heightened Def Con from 1.80862e-006 to 1.80862e-006
Heightened Def Con from 1.80862e-006 to 1.80862e-006
Heightened Def Con from 1.80862e-006 to 1.80875e-006
Heightened Def Con from 1.80875e-006 to 1.81075e-006
Heightened Def Con from 1.81075e-006 to 1.81075e-006
Heightened Def Con from 1.81075e-006 to 1.81077e-006
Heightened Def Con from 1.81077e-006 to 1.81077e-006
Heightened Def Con from 1.81077e-006 to 1.81077e-006
Heightened Def Con from 1.81077e-006 to 1.8119e-006
Heightened Def Con from 1.8119e-006 to 1.81202e-006
Heightened Def Con from 1.81203e-006 to 1.81203e-006
Heightened Def Con from 1.81203e-006 to 1.81315e-006
Heightened Def Con from 1.81346e-006 to 1.81359e-006
Heightened Def Con from 1.81359e-006 to 1.81372e-006
Heightened Def Con from 1.81372e-006 to 1.81372e-006
Heightened Def Con from 1.81372e-006 to 1.81384e-006
Heightened Def Con from 1.81384e-006 to 1.81484e-006
Heightened Def Con from 1.81484e-006 to 1.81584e-006
Heightened Def Con from 1.81584e-006 to 1.81584e-006
Heightened Def Con from 1.81584e-006 to 1.81597e-006
Heightened Def Con from 1.81597e-006 to 1.81709e-006
Heightened Def Con from 1.8171e-006 to 1.8171e-006
Heightened Def Con from 1.8171e-006 to 1.8171e-006
Heightened Def Con from 1.8171e-006 to 1.81722e-006
Heightened Def Con from 1.81722e-006 to 1.81735e-006
Heightened Def Con from 1.81735e-006 to 1.81735e-006
Heightened Def Con from 1.81735e-006 to 1.81735e-006
Heightened Def Con from 1.81735e-006 to 1.81735e-006
Heightened Def Con from 1.81735e-006 to 1.81747e-006
Heightened Def Con from 1.81747e-006 to 1.81947e-006
Heightened Def Con from 1.81951e-006 to 1.81951e-006
Heightened Def Con from 1.81951e-006 to 1.81951e-006
Heightened Def Con from 1.81951e-006 ++to 1.81951e-006
Heightened Def Con from 1.81951e-006 to 1.81963e-006
Heightened Def Con from 1.81963e-006 +to 1.82063e-006
Heightened Def Con from 1.82063e-006 to 1.82076e-006
Heightened Def Con from 1.82076e-006 to 1.82088e-006
Heightened Def Con from 1.82088e-006 to 1.82101e-006
Heightened Def Con from 1.82101e-006 to 1.82101e-006
Heightened Def Con from 1.82101e-006 to 1.82113e-006
Heightened Def Con from 1.82113e-006 to 1.82126e-006
Heightened Def Con from 1.82126e-006 to 1.82126e-006
Heightened Def Con from 1.82126e-006 to 1.82139e-006
Heightened Def Con from 1.82139e-006 to 1.82151e-006
Heightened Def Con from 1.82151e-006 ++++to 1.82164e-006
Heightened Def Con from 1.82189e-006 to 1.82201e-006
Heightened Def Con from 1.82201e-006 to 1.82214e-006
Heightened Def Con from 1.82214e-006 to 1.82226e-006
Heightened Def Con from 1.82226e-006 to 1.82226e-006
Heightened Def Con from 1.82226e-006 to 1.82226e-006
Heightened Def Con from 1.82226e-006 to 1.82226e-006
Heightened Def Con from 1.82226e-006 to 1.82239e-006
Heightened Def Con from 1.82239e-006 to 1.82239e-006
Heightened Def Con from 1.82239e-006 +to 1.82339e-006
Heightened Def Con from 1.82339e-006 to 1.82352e-006
Heightened Def Con from 1.82352e-006 to 1.82464e-006
Heightened Def Con from 1.82468e-006 to 1.82468e-006
Heightened Def Con from 1.82468e-006 to 1.82468e-006
Heightened Def Con from 1.82468e-006 to 1.82581e-006
Heightened Def Con from 1.82585e-006 to 1.82597e-006
Heightened Def Con from 1.82597e-006 +to 1.82597e-006
Heightened Def Con from 1.82597e-006 to 1.82797e-006
Heightened Def Con from 1.82966e-006 to 1.82966e-006
Heightened Def Con from 1.82966e-006 +to 1.82966e-006
Heightened Def Con from 1.82966e-006 to 1.82966e-006
Heightened Def Con from 1.82966e-006 +++to 1.82966e-006
Heightened Def Con from 1.82966e-006 to 1.82978e-006
Heightened Def Con from 1.82979e-006 to 1.82979e-006
Heightened Def Con from 1.82979e-006 to 1.82979e-006
Heightened Def Con from 1.82979e-006 to 1.82991e-006
Heightened Def Con from 1.82991e-006 to 1.83004e-006
Heightened Def Con from 1.83004e-006 to 1.83016e-006
Heightened Def Con from 1.83016e-006 to 1.83016e-006
Heightened Def Con from 1.83016e-006 to 1.83116e-006
Heightened Def Con from 1.83116e-006 to 1.83116e-006
Heightened Def Con from 1.83116e-006 to 1.83116e-006
Heightened Def Con from 1.83116e-006 to 1.83129e-006
Heightened Def Con from 1.83129e-006 to 1.83241e-006
Heightened Def Con from 1.83245e-006 to 1.83258e-006
Heightened Def Con from 1.83258e-006 to 1.8337e-006
Heightened Def Con from 1.83374e-006 to 1.83387e-006
Heightened Def Con from 1.83387e-006 to 1.83399e-006
Heightened Def Con from 1.83399e-006 to 1.83399e-006
Heightened Def Con from 1.83399e-006 to 1.83399e-006
Heightened Def Con from 1.83399e-006 to 1.834e-006
Heightened Def Con from 1.834e-006 to 1.836e-006
Heightened Def Con from 1.83603e-006 to 1.83603e-006
Heightened Def Con from 1.83603e-006 to 1.83603e-006
Heightened Def Con from 1.83603e-006 to 1.83615e-006
Heightened Def Con from 1.83615e-006 to 1.83615e-006
Heightened Def Con from 1.83615e-006 to 1.83615e-006
Heightened Def Con from 1.83615e-006 to 1.83628e-006
Heightened Def Con from 1.83628e-006 to 1.8364e-006
Heightened Def Con from 1.8364e-006 to 1.8364e-006
Heightened Def Con from 1.8364e-006 to 1.83653e-006
Heightened Def Con from 1.83653e-006 to 1.83653e-006
Heightened Def Con from 1.83653e-006 to 1.83653e-006
Heightened Def Con from 1.83653e-006 to 1.83666e-006
Heightened Def Con from 1.83666e-006 to 1.83678e-006
Heightened Def Con from 1.83678e-006 to 1.83678e-006
Heightened Def Con from 1.83678e-006 to 1.83678e-006
Heightened Def Con from 1.83678e-006 to 1.83691e-006
Heightened Def Con from 1.83691e-006 to 1.83691e-006
Heightened Def Con from 1.83691e-006 to 1.83691e-006
Heightened Def Con from 1.83691e-006 to 1.83703e-006
Heightened Def Con from 1.83703e-006 to 1.83703e-006
Heightened Def Con from 1.83703e-006 to 1.83716e-006
Heightened Def Con from 1.83716e-006 to 1.83728e-006
Heightened Def Con from 1.83728e-006 to 1.83728e-006
Heightened Def Con from 1.83728e-006 to 1.83741e-006
Heightened Def Con from 1.83741e-006 to 1.83754e-006
Heightened Def Con from 1.83754e-006 to 1.83754e-006
Heightened Def Con from 1.83754e-006 +to 1.83754e-006
Heightened Def Con from 1.83754e-006 to 1.83754e-006
Heightened Def Con from 1.83754e-006 to 1.83766e-006
Heightened Def Con from 1.83766e-006 to 1.83766e-006
Heightened Def Con from 1.83766e-006 to 1.83779e-006
Heightened Def Con from 1.83779e-006 to 1.83791e-006
Heightened Def Con from 1.83791e-006 +to 1.83904e-006
Heightened Def Con from 1.83908e-006 to 1.8402e-006
Heightened Def Con from 1.84095e-006 to 1.84108e-006
Heightened Def Con from 1.84108e-006 to 1.84121e-006
Heightened Def Con from 1.84121e-006 to 1.84121e-006
Heightened Def Con from 1.84121e-006 to 1.84121e-006
Heightened Def Con from 1.84121e-006 +to 1.84121e-006
Heightened Def Con from 1.84121e-006 to 1.84121e-006
Heightened Def Con from 1.84121e-006 to 1.84133e-006
Heightened Def Con from 1.84133e-006 to 1.84146e-006
Heightened Def Con from 1.84146e-006 to 1.84158e-006
Heightened Def Con from 1.84158e-006 to 1.84271e-006
Heightened Def Con from 1.84275e-006 to 1.84275e-006
Heightened Def Con from 1.84275e-006 to 1.84475e-006
Heightened Def Con from 1.84484e-006 to 1.84484e-006
Heightened Def Con from 1.84484e-006 to 1.84484e-006
Heightened Def Con from 1.84484e-006 to 1.84584e-006
Heightened Def Con from 1.84584e-006 to 1.84684e-006
Heightened Def Con from 1.84684e-006 to 1.84684e-006
Heightened Def Con from 1.84684e-006 to 1.84684e-006
Heightened Def Con from 1.84684e-006 to 1.84684e-006
Heightened Def Con from 1.84685e-006 to 1.84685e-006
Heightened Def Con from 1.84685e-006 to 1.84685e-006
Heightened Def Con from 1.84685e-006 to 1.84685e-006
Heightened Def Con from 1.84685e-006 to 1.84885e-006
Heightened Def Con from 1.84888e-006 to 1.84888e-006
Heightened Def Con from 1.84888e-006 to 1.849e-006
Heightened Def Con from 1.849e-006 to 1.851e-006
Heightened Def Con from 1.85301e-006 to 1.85501e-006
Heightened Def Con from 1.85576e-006 to 1.85576e-006
Heightened Def Con from 1.85576e-006 to 1.85576e-006
Heightened Def Con from 1.85576e-006 to 1.85576e-006
Heightened Def Con from 1.85576e-006 to 1.85576e-006
Heightened Def Con from 1.85576e-006 to 1.85576e-006
Heightened Def Con from 1.85576e-006 to 1.85576e-006
Heightened Def Con from 1.85576e-006 to 1.85576e-006
Heightened Def Con from 1.85576e-006 to 1.85576e-006
Heightened Def Con from 1.85576e-006 +to 1.85589e-006
Heightened Def Con from 1.85629e-006 to 1.85641e-006
Heightened Def Con from 1.85641e-006 to 1.85654e-006
Heightened Def Con from 1.85654e-006 to 1.85667e-006
Heightened Def Con from 1.85667e-006 to 1.85779e-006
Heightened Def Con from 1.85783e-006 to 1.85783e-006
Heightened Def Con from 1.85783e-006 to 1.85783e-006
Heightened Def Con from 1.85783e-006 to 1.85783e-006
Heightened Def Con from 1.85783e-006 to 1.85783e-006
Heightened Def Con from 1.85783e-006 to 1.85783e-006
Heightened Def Con from 1.85783e-006 to 1.85796e-006
Heightened Def Con from 1.85796e-006 to 1.85796e-006
Heightened Def Con from 1.85796e-006 to 1.85896e-006
Heightened Def Con from 1.85896e-006 to 1.86096e-006
Heightened Def Con from 1.861e-006 to 1.86112e-006
Heightened Def Con from 1.86112e-006 to 1.86225e-006
Heightened Def Con from 1.863e-006 to 1.86313e-006
Heightened Def Con from 1.86313e-006 to 1.86325e-006
Heightened Def Con from 1.86325e-006 to 1.86325e-006
Heightened Def Con from 1.86325e-006 to 1.86338e-006
Heightened Def Con from 1.86338e-006 +to 1.86338e-006
Heightened Def Con from 1.86338e-006 to 1.8635e-006
Heightened Def Con from 1.8635e-006 to 1.8655e-006
Heightened Def Con from 1.86553e-006 to 1.86666e-006
Heightened Def Con from 1.86741e-006 to 1.86753e-006
Heightened Def Con from 1.86754e-006 to 1.86754e-006
Heightened Def Con from 1.86754e-006 to 1.86766e-006
Heightened Def Con from 1.86766e-006 to 1.86779e-006
Heightened Def Con from 1.86779e-006 to 1.86779e-006
Heightened Def Con from 1.86779e-006 to 1.86779e-006
Heightened Def Con from 1.86779e-006 to 1.86791e-006
Heightened Def Con from 1.86791e-006 to 1.86804e-006
Heightened Def Con from 1.86804e-006 to 1.86816e-006
Heightened Def Con from 1.86817e-006 to 1.86829e-006
Heightened Def Con from 1.86829e-006 to 1.86942e-006
Heightened Def Con from 1.86946e-006 to 1.86946e-006
Heightened Def Con from 1.86946e-006 to 1.86958e-006
Heightened Def Con from 1.86958e-006 to 1.86971e-006
Heightened Def Con from 1.86971e-006 to 1.87083e-006
Heightened Def Con from 1.87084e-006 to 1.87085e-006
Heightened Def Con from 1.87085e-006 to 1.87085e-006
Heightened Def Con from 1.87085e-006 to 1.87097e-006
Heightened Def Con from 1.87097e-006 +to 1.8711e-006
Heightened Def Con from 1.8711e-006 to 1.8731e-006
Heightened Def Con from 1.87533e-006 to 1.87545e-006
Heightened Def Con from 1.87545e-006 to 1.87658e-006
Heightened Def Con from 1.87659e-006 to 1.87671e-006
Heightened Def Con from 1.87671e-006 to 1.87771e-006
Heightened Def Con from 1.87771e-006 to 1.87784e-006
Heightened Def Con from 1.87784e-006 to 1.87784e-006
Heightened Def Con from 1.87784e-006 to 1.87797e-006
Heightened Def Con from 1.87797e-006 to 1.87909e-006
Heightened Def Con from 1.87913e-006 to 1.87926e-006
Heightened Def Con from 1.87926e-006 to 1.87926e-006
Heightened Def Con from 1.87926e-006 to 1.88126e-006
Heightened Def Con from 1.88129e-006 to 1.88141e-006
Heightened Def Con from 1.88141e-006 to 1.88154e-006
Heightened Def Con from 1.88154e-006 to 1.88166e-006
Heightened Def Con from 1.88166e-006 to 1.88179e-006
Heightened Def Con from 1.88179e-006 to 1.88179e-006
Heightened Def Con from 1.88179e-006 to 1.88179e-006
Heightened Def Con from 1.88179e-006 to 1.88191e-006
Heightened Def Con from 1.88192e-006 to 1.88204e-006
Heightened Def Con from 1.88204e-006 to 1.88404e-006
Heightened Def Con from 1.88698e-006 to 1.8871e-006
Heightened Def Con from 1.8871e-006 to 1.88723e-006
Heightened Def Con from 1.88723e-006 to 1.88923e-006
Heightened Def Con from 2.73684e-006 to 2.73884e-006
Heightened Def Con from 2.7412e-006 to 2.74232e-006
Heightened Def Con from 2.74243e-006 to 2.74244e-006
Heightened Def Con from 2.74244e-006 to 2.74258e-006
Heightened Def Con from 2.74502e-006 to 2.74527e-006
Heightened Def Con from 2.74528e-006 to 2.74728e-006
Heightened Def Con from 2.75945e-006 to 2.76145e-006
Heightened Def Con from 2.76392e-006 to 2.76505e-006
Heightened Def Con from 2.76512e-006 to 2.76512e-006
Heightened Def Con from 2.76512e-006 to 2.76516e-006
Heightened Def Con from 2.76566e-006 to 2.76566e-006
Heightened Def Con from 2.76566e-006 to 2.76766e-006
Heightened Def Con from 2.89993e-006 to 2.90018e-006
Heightened Def Con from 2.90862e-006 to 2.90876e-006
Heightened Def Con from 2.90876e-006 to 2.90978e-006
Heightened Def Con from 2.90978e-006 to 2.90981e-006
Heightened Def Con from 2.90985e-006 to 2.91098e-006
Heightened Def Con from 2.91319e-006 to 2.91332e-006
Heightened Def Con from 2.91332e-006 to 2.91445e-006
Heightened Def Con from 2.91477e-006 to 2.9149e-006
Heightened Def Con from 2.9149e-006 to 2.91515e-006
Heightened Def Con from 2.91516e-006 to 2.91616e-006
Heightened Def Con from 2.91616e-006 to 2.91641e-006
Heightened Def Con from 2.91643e-006 to 2.91743e-006
Heightened Def Con from 2.91743e-006 to 2.91856e-006
Heightened Def Con from 2.91882e-006 to 2.91896e-006
Heightened Def Con from 2.91897e-006 to 2.92097e-006
Heightened Def Con from 3.04706e-006 to 3.04906e-006
Heightened Def Con from 3.05217e-006 to 3.05242e-006
Heightened Def Con from 3.05242e-006 +to 3.05342e-006
Heightened Def Con from 3.05367e-006 to 3.05367e-006
Heightened Def Con from 3.05367e-006 to 3.05368e-006
Heightened Def Con from 3.05368e-006 to 3.05368e-006
Heightened Def Con from 3.05368e-006 to 3.05382e-006
Heightened Def Con from 3.05382e-006 +to 3.05382e-006
Heightened Def Con from 3.05382e-006 to 3.05384e-006
Heightened Def Con from 3.05384e-006 to 3.05384e-006
Heightened Def Con from 3.05384e-006 ++++to 3.05384e-006
Heightened Def Con from 3.05384e-006 to 3.05384e-006
Heightened Def Con from 3.05384e-006 to 3.05385e-006
Heightened Def Con from 3.05385e-006 to 3.05486e-006
Heightened Def Con from 3.05486e-006 to 3.05486e-006
Heightened Def Con from 3.05486e-006 +to 3.05486e-006
Heightened Def Con from 3.05486e-006 to 3.05486e-006
Heightened Def Con from 3.05486e-006 to 3.05486e-006
Heightened Def Con from 3.05486e-006 +++to 3.05486e-006
Heightened Def Con from 3.05486e-006 ++to 3.05486e-006
Heightened Def Con from 3.05486e-006 to 3.05486e-006
Heightened Def Con from 3.05486e-006 ++to 3.05486e-006
Heightened Def Con from 3.05486e-006 to 3.05486e-006
Heightened Def Con from 3.05486e-006 to 3.05487e-006
Heightened Def Con from 3.05487e-006 +to 3.05489e-006
Heightened Def Con from 3.05489e-006 to 3.05489e-006
Heightened Def Con from 3.05489e-006 to 3.05489e-006
Heightened Def Con from 3.05489e-006 to 3.05489e-006
Heightened Def Con from 3.05489e-006 +to 3.05489e-006
Heightened Def Con from 3.05489e-006 ++to 3.05589e-006
Heightened Def Con from 3.05589e-006 +to 3.05689e-006
Heightened Def Con from 3.05689e-006 +to 3.05689e-006
Heightened Def Con from 3.05689e-006 ++to 3.05702e-006
Heightened Def Con from 3.05705e-006 to 3.05705e-006
Heightened Def Con from 3.05705e-006 to 3.05705e-006
Heightened Def Con from 3.05705e-006 to 3.05705e-006
Heightened Def Con from 3.05705e-006 ++to 3.05805e-006
Heightened Def Con from 3.05805e-006 +to 3.05805e-006
Heightened Def Con from 3.05805e-006 to 3.05807e-006
Heightened Def Con from 3.05807e-006 ++++to 3.05807e-006
Heightened Def Con from 3.05807e-006 to 3.05807e-006
Heightened Def Con from 3.05807e-006 to 3.05809e-006
Heightened Def Con from 3.05809e-006 to 3.05821e-006
Heightened Def Con from 3.05821e-006 to 3.05821e-006
Heightened Def Con from 3.05821e-006 to 3.05822e-006
Heightened Def Con from 3.05822e-006 +to 3.05822e-006
Heightened Def Con from 3.05822e-006 +++to 3.05822e-006
Heightened Def Con from 3.05822e-006 to 3.05822e-006
Heightened Def Con from 3.05822e-006 to 3.05822e-006
Heightened Def Con from 3.05822e-006 to 3.05822e-006
Heightened Def Con from 3.05822e-006 +to 3.05824e-006
Heightened Def Con from 3.05824e-006 to 3.05825e-006
Heightened Def Con from 3.05825e-006 +to 3.05825e-006
Heightened Def Con from 3.05825e-006 +to 3.05838e-006
Heightened Def Con from 3.05838e-006 ++to 3.05838e-006
Heightened Def Con from 3.05838e-006 to 3.05938e-006
Heightened Def Con from 3.05938e-006 +to 3.0604e-006
Heightened Def Con from 3.0604e-006 ++to 3.0614e-006
Heightened Def Con from 3.0614e-006 to 3.0614e-006
Heightened Def Con from 3.0614e-006 +to 3.06143e-006
Heightened Def Con from 3.06143e-006 to 3.06143e-006
Heightened Def Con from 3.06143e-006 to 3.06143e-006
Heightened Def Con from 3.06143e-006 to 3.06145e-006
Heightened Def Con from 3.06145e-006 to 3.06145e-006
Heightened Def Con from 3.06145e-006 to 3.06145e-006
Heightened Def Con from 3.06145e-006 to 3.06147e-006
Heightened Def Con from 3.06147e-006 to 3.06147e-006
Heightened Def Con from 3.06147e-006 +to 3.06148e-006
Heightened Def Con from 3.06148e-006 to 3.06162e-006
Heightened Def Con from 3.06162e-006 +to 3.06162e-006
Heightened Def Con from 3.06162e-006 to 3.06163e-006
Heightened Def Con from 3.06163e-006 +to 3.06263e-006
Heightened Def Con from 3.06263e-006 to 3.06288e-006
Heightened Def Con from 3.06288e-006 +to 3.06302e-006
Heightened Def Con from 3.06302e-006 to 3.06315e-006
Heightened Def Con from 3.06315e-006 +to 3.06315e-006
Heightened Def Con from 3.06315e-006 ++to 3.06315e-006
Heightened Def Con from 3.06315e-006 to 3.06315e-006
Heightened Def Con from 3.06315e-006 to 3.06315e-006
Heightened Def Con from 3.06315e-006 +to 3.06315e-006
Heightened Def Con from 3.06315e-006 to 3.06315e-006
Heightened Def Con from 3.06315e-006 to 3.06315e-006
Heightened Def Con from 3.06315e-006 to 3.06315e-006
Heightened Def Con from 3.06315e-006 to 3.06315e-006
Heightened Def Con from 3.06315e-006 to 3.06316e-006
Heightened Def Con from 3.06316e-006 to 3.06328e-006
Heightened Def Con from 3.06328e-006 to 3.0633e-006
Heightened Def Con from 3.0633e-006 to 3.06342e-006
Heightened Def Con from 3.06342e-006 to 3.06342e-006
Heightened Def Con from 3.06342e-006 +to 3.06344e-006
Heightened Def Con from 3.06344e-006 to 3.06344e-006
Heightened Def Con from 3.06344e-006 +to 3.06345e-006
Heightened Def Con from 3.06345e-006 to 3.06347e-006
Heightened Def Con from 3.06347e-006 +to 3.06448e-006
Heightened Def Con from 3.06448e-006 to 3.06448e-006
Heightened Def Con from 3.06448e-006 +to 3.06448e-006
Heightened Def Con from 3.06448e-006 to 3.06449e-006
Heightened Def Con from 3.06449e-006 to 3.06462e-006
Heightened Def Con from 3.06462e-006 +++to 3.06462e-006
Heightened Def Con from 3.06462e-006 to 3.06462e-006
Heightened Def Con from 3.06462e-006 to 3.06474e-006
Heightened Def Con from 3.06474e-006 to 3.06477e-006
Heightened Def Con from 3.06477e-006 to 3.06477e-006
Heightened Def Con from 3.06477e-006 to 3.06677e-006
Heightened Def Con from 3.06678e-006 to 3.06678e-006
Heightened Def Con from 3.06678e-006 +to 3.0669e-006
Heightened Def Con from 3.0669e-006 to 3.06692e-006
Heightened Def Con from 3.06692e-006 to 3.06692e-006
Heightened Def Con from 3.06692e-006 to 3.06693e-006
Heightened Def Con from 3.06693e-006 to 3.06793e-006
Heightened Def Con from 3.06793e-006 to 3.06793e-006
Heightened Def Con from 3.06793e-006 to 3.06793e-006
Heightened Def Con from 3.06793e-006 +to 3.06993e-006
Heightened Def Con from 3.07333e-006 to 3.07533e-006
Heightened Def Con from 3.08607e-006 to 3.08607e-006
Heightened Def Con from 3.08607e-006 to 3.08632e-006
Heightened Def Con from 3.09008e-006 to 3.09011e-006
Heightened Def Con from 3.09176e-006 to 3.09189e-006
Heightened Def Con from 3.0919e-006 to 3.0939e-006
Heightened Def Con from 3.10854e-006 to 3.11054e-006
Heightened Def Con from 3.12377e-006 ++to 3.12577e-006
Heightened Def Con from 3.12577e-006 to 3.12578e-006
Heightened Def Con from 3.12578e-006 to 3.12578e-006
Heightened Def Con from 3.12578e-006 to 3.12578e-006
Heightened Def Con from 3.12578e-006 +to 3.12578e-006
Heightened Def Con from 3.12578e-006 +to 3.12578e-006
Heightened Def Con from 3.12578e-006 to 3.1269e-006
Heightened Def Con from 3.12716e-006 +to 3.12816e-006
Heightened Def Con from 3.12819e-006 to 3.12819e-006
Heightened Def Con from 3.12819e-006 +to 3.12832e-006
Heightened Def Con from 3.12835e-006 to 3.12947e-006
Heightened Def Con from 3.12947e-006 to 3.12947e-006
Heightened Def Con from 3.12947e-006 to 3.13047e-006
Heightened Def Con from 3.13047e-006 to 3.13047e-006
Heightened Def Con from 3.13047e-006 to 3.13049e-006
Heightened Def Con from 3.13049e-006 to 3.13249e-006
Heightened Def Con from 3.13455e-006 to 3.13655e-006
Heightened Def Con from 3.13749e-006 to 3.13749e-006
Heightened Def Con from 3.13749e-006 +to 3.13751e-006
Heightened Def Con from 3.13752e-006 to 3.13754e-006
Heightened Def Con from 3.13754e-006 to 3.13954e-006
Heightened Def Con from 3.14031e-006 to 3.14131e-006
Heightened Def Con from 3.14133e-006 to 3.14245e-006
Heightened Def Con from 3.14496e-006 to 3.14508e-006
Heightened Def Con from 3.14509e-006 to 3.14709e-006
Heightened Def Con from 3.18409e-006 to 3.18409e-006
Heightened Def Con from 3.18409e-006 to 3.18411e-006
Heightened Def Con from 3.18411e-006 to 3.18411e-006
Heightened Def Con from 3.18411e-006 to 3.18424e-006
Heightened Def Con from 3.18424e-006 to 3.18427e-006
Heightened Def Con from 3.18427e-006 +to 3.18429e-006
Heightened Def Con from 3.18429e-006 to 3.18541e-006
Heightened Def Con from 3.18541e-006 to 3.18641e-006
Heightened Def Con from 3.18641e-006 to 3.18741e-006
Heightened Def Con from 3.18741e-006 to 3.18843e-006
Heightened Def Con from 3.18854e-006 to 3.18954e-006
Heightened Def Con from 3.18954e-006 to 3.19154e-006
Heightened Def Con from 3.72708e-006 to 3.7281e-006
Heightened Def Con from 3.7301e-006 to 3.73012e-006
Heightened Def Con from 3.73012e-006 to 3.73212e-006
Heightened Def Con from 3.7692e-006 to 3.76934e-006
Heightened Def Con from 3.77038e-006 to 3.77038e-006
Heightened Def Con from 3.77038e-006 to 3.77052e-006
Heightened Def Con from 3.77063e-006 to 3.77075e-006
Heightened Def Con from 3.77089e-006 +to 3.77101e-006
Heightened Def Con from 3.77134e-006 to 3.77134e-006
Heightened Def Con from 3.77135e-006 to 3.77236e-006
Heightened Def Con from 3.77236e-006 to 3.77336e-006
Heightened Def Con from 3.77336e-006 to 3.7735e-006
Heightened Def Con from 3.77356e-006 to 3.77356e-006
Heightened Def Con from 3.77356e-006 to 3.77356e-006
Heightened Def Con from 3.77356e-006 to 3.77356e-006
Heightened Def Con from 3.77356e-006 to 3.77358e-006
Heightened Def Con from 3.77358e-006 to 3.77358e-006
Heightened Def Con from 3.77358e-006 to 3.77372e-006
Heightened Def Con from 3.77384e-006 to 3.77409e-006
Heightened Def Con from 3.77409e-006 +to 3.77422e-006
Heightened Def Con from 3.77457e-006 to 3.7747e-006
Heightened Def Con from 3.77476e-006 to 3.77676e-006
Heightened Def Con from 3.77877e-006 to 3.77902e-006
Heightened Def Con from 3.78024e-006 to 3.78038e-006
Heightened Def Con from 3.78041e-006 to 3.78043e-006
Heightened Def Con from 3.78043e-006 to 3.78057e-006
Heightened Def Con from 3.78074e-006 to 3.78186e-006
Heightened Def Con from 3.78218e-006 to 3.78219e-006
Heightened Def Con from 3.78219e-006 to 3.78244e-006
Heightened Def Con from 3.78248e-006 to 3.78248e-006
Heightened Def Con from 3.78248e-006 to 3.78248e-006
Heightened Def Con from 3.78248e-006 to 3.78262e-006
Heightened Def Con from 3.78262e-006 to 3.78362e-006
Heightened Def Con from 3.78362e-006 to 3.78474e-006
Heightened Def Con from 3.78551e-006 to 3.78551e-006
Heightened Def Con from 3.78551e-006 to 3.78576e-006
Heightened Def Con from 3.7861e-006 to 3.78635e-006
Heightened Def Con from 3.78635e-006 to 3.78647e-006
Heightened Def Con from 3.78647e-006 to 3.78649e-006
Heightened Def Con from 3.78649e-006 to 3.78849e-006
Heightened Def Con from 3.78858e-006 to 3.79058e-006
Heightened Def Con from 3.79293e-006 to 3.79293e-006
Heightened Def Con from 3.79293e-006 to 3.79293e-006
Heightened Def Con from 3.79294e-006 to 3.79395e-006
Heightened Def Con from 3.79406e-006 to 3.79431e-006
Heightened Def Con from 3.79431e-006 to 3.79456e-006
Heightened Def Con from 3.7985e-006 to 3.79852e-006
Heightened Def Con from 3.79855e-006 to 3.79858e-006
Heightened Def Con from 3.79861e-006 to 3.79973e-006
Heightened Def Con from 3.79979e-006 to 3.79979e-006
Heightened Def Con from 3.79979e-006 to 3.80179e-006
Heightened Def Con from 3.80213e-006 to 3.80326e-006
Heightened Def Con from 3.80351e-006 to 3.80351e-006
Heightened Def Con from 3.80356e-006 to 3.80556e-006
Heightened Def Con from 3.80631e-006 to 3.80633e-006
Heightened Def Con from 3.80633e-006 to 3.80745e-006
Heightened Def Con from 3.80771e-006 to 3.80771e-006
Heightened Def Con from 3.80787e-006 to 3.80801e-006
Heightened Def Con from 3.80807e-006 to 3.80907e-006
Heightened Def Con from 3.8091e-006 to 3.8111e-006
Heightened Def Con from 3.8111e-006 to 3.81112e-006
Heightened Def Con from 3.81112e-006 to 3.81224e-006
Heightened Def Con from 3.83812e-006 to 3.84012e-006
Heightened Def Con from 3.84049e-006 to 3.84074e-006
Heightened Def Con from 3.841e-006 to 3.84114e-006
Heightened Def Con from 3.84117e-006 to 3.84229e-006
Heightened Def Con from 3.84241e-006 to 3.84241e-006
Heightened Def Con from 3.84241e-006 to 3.84242e-006
Heightened Def Con from 3.84242e-006 to 3.84243e-006
Heightened Def Con from 3.84243e-006 +to 3.84355e-006
Heightened Def Con from 3.84375e-006 to 3.84387e-006
Heightened Def Con from 3.84396e-006 to 3.84396e-006
Heightened Def Con from 3.84396e-006 to 3.84397e-006
Heightened Def Con from 3.84397e-006 to 3.84597e-006
Heightened Def Con from 3.84598e-006 to 3.84598e-006
Heightened Def Con from 3.84598e-006 to 3.84711e-006
Heightened Def Con from 3.84736e-006 to 3.84837e-006
Heightened Def Con from 3.84847e-006 to 3.84847e-006
Heightened Def Con from 3.84847e-006 to 3.84847e-006
Heightened Def Con from 3.84847e-006 to 3.84847e-006
Heightened Def Con from 3.84847e-006 to 3.84959e-006
Heightened Def Con from 3.85047e-006 to 3.8516e-006
Heightened Def Con from 3.85335e-006 to 3.85447e-006
Heightened Def Con from 3.85448e-006 to 3.85461e-006
Heightened Def Con from 3.85461e-006 to 3.85573e-006
Heightened Def Con from 3.85599e-006 to 3.856e-006
Heightened Def Con from 3.856e-006 to 3.858e-006
Heightened Def Con from 3.85801e-006 to 3.85813e-006
Heightened Def Con from 3.85814e-006 to 3.85916e-006
Heightened Def Con from 3.86126e-006 to 3.86129e-006
Heightened Def Con from 3.86129e-006 to 3.86129e-006
Heightened Def Con from 3.86131e-006 to 3.86231e-006
Heightened Def Con from 3.86231e-006 to 3.86332e-006
Heightened Def Con from 3.86338e-006 to 3.86363e-006
Heightened Def Con from 3.86389e-006 to 3.86589e-006
Heightened Def Con from 3.86941e-006 to 3.87141e-006
Heightened Def Con from 3.8752e-006 to 3.87621e-006
Heightened Def Con from 3.87624e-006 to 3.87736e-006
Heightened Def Con from 3.87739e-006 to 3.87939e-006
Heightened Def Con from 3.89026e-006 to 3.89226e-006

Date: Mon Sep 01 07:39:42 2014
Total elapsed time: 1.544 seconds.

tnom = 27
temp = 27
method = modified trap
totiter = 173989
traniter = 173970
tranpoints = 25178
accept = 11710
rejected = 14384
matrix size = 32
fillins = 58
solver = Normal
Matrix Compiler1: 5.17 KB object code size  1.1/0.7/[0.5]
Matrix Compiler2: 3.62 KB object code size  0.5/0.6/[0.5]


