Circuit: * \\psf\Home\Documents\Lettuce Buddy HW\HealthyEC\LTSpice\miniEC_WienBridgeWithFG_V1.asc

Early termination of direct N-R iteration.
Direct Newton iteration failed to find .op point.  (Use ".option noopiter" to skip.)
Starting Gmin stepping
Gmin = 10
Gmin = 1.07374
vernier = 0.5
vernier = 0.25
vernier = 0.125
vernier = 0.0625
vernier = 0.03125
Gmin = 1.01058
vernier = 0.015625
vernier = 0.0078125
vernier = 0.00390625
vernier = 0.00195313
Gmin = 0.999815
vernier = 0.000976563
vernier = 0.000488281
Gmin = 0
Gmin stepping succeeded in finding the operating point.

Heightened Def Con from 6.27773e-007 to 6.27773e-007
Heightened Def Con from 6.27773e-007 to 6.29773e-007
Heightened Def Con from 6.31742e-007 to 6.31992e-007
Heightened Def Con from 6.45943e-007 to 6.45975e-007
Heightened Def Con from 6.45977e-007 to 6.45977e-007
Heightened Def Con from 6.45977e-007 to 6.47977e-007
Heightened Def Con from 6.4878e-007 +to 6.4878e-007
Heightened Def Con from 6.4878e-007 to 6.48796e-007
Heightened Def Con from 6.48796e-007 +to 6.48811e-007
Heightened Def Con from 6.51558e-007 to 6.51558e-007
Heightened Def Con from 6.51558e-007 to 6.51574e-007
Heightened Def Con from 6.51683e-007 to 6.51824e-007
Heightened Def Con from 6.51947e-007 to 6.51947e-007
Heightened Def Con from 6.51947e-007 to 6.51964e-007
Heightened Def Con from 6.51968e-007 to 6.51968e-007
Heightened Def Con from 6.51968e-007 to 6.51968e-007
Heightened Def Con from 6.51968e-007 to 6.53968e-007
Heightened Def Con from 6.74481e-007 to 6.74481e-007
Heightened Def Con from 6.74481e-007 to 6.76481e-007
Heightened Def Con from 6.78232e-007 +to 6.79233e-007
Heightened Def Con from 6.79233e-007 +to 6.80233e-007
Heightened Def Con from 6.84428e-007 +to 6.85428e-007
Heightened Def Con from 6.85428e-007 to 6.85678e-007
Heightened Def Con from 6.8593e-007 to 6.8618e-007
Heightened Def Con from 6.86492e-007 +to 6.86508e-007
Heightened Def Con from 6.89886e-007 to 6.89886e-007
Heightened Def Con from 6.89886e-007 to 6.89886e-007
Heightened Def Con from 6.89886e-007 to 6.90136e-007
Heightened Def Con from 6.90136e-007 to 6.90136e-007
Heightened Def Con from 6.90174e-007 +to 6.90174e-007
Heightened Def Con from 6.90174e-007 ++++to 6.90174e-007
Heightened Def Con from 6.90174e-007 to 6.90176e-007
Heightened Def Con from 6.90176e-007 to 6.90426e-007
Heightened Def Con from 6.90547e-007 to 6.92547e-007
Heightened Def Con from 6.92579e-007 to 6.92581e-007
Heightened Def Con from 6.92581e-007 +to 6.92581e-007
Heightened Def Con from 6.92581e-007 +to 6.92597e-007
Heightened Def Con from 6.92597e-007 +to 6.93597e-007
Heightened Def Con from 6.93668e-007 +to 6.94668e-007
Heightened Def Con from 7.17526e-007 to 7.17526e-007
Heightened Def Con from 7.17526e-007 ++to 7.17651e-007
Heightened Def Con from 7.19276e-007 +to 7.19401e-007
Heightened Def Con from 7.20002e-007 to 7.21003e-007
Heightened Def Con from 7.21004e-007 +to 7.22004e-007
Heightened Def Con from 7.3324e-007 to 7.3524e-007
Heightened Def Con from 7.58635e-007 to 7.58635e-007
Heightened Def Con from 7.58635e-007 to 7.5976e-007
Heightened Def Con from 7.61636e-007 to 7.61777e-007
Heightened Def Con from 7.61816e-007 to 7.61941e-007
Heightened Def Con from 7.61941e-007 to 7.62191e-007
Heightened Def Con from 7.64108e-007 to 7.64358e-007
Heightened Def Con from 7.64761e-007 ++to 7.65761e-007
Heightened Def Con from 7.65763e-007 to 7.65763e-007
Heightened Def Con from 7.65763e-007 to 7.65903e-007
Heightened Def Con from 7.66013e-007 to 7.66013e-007
Heightened Def Con from 7.66013e-007 +to 7.67013e-007
Heightened Def Con from 7.79746e-007 to 7.79748e-007
Heightened Def Con from 7.79759e-007 to 7.79759e-007
Heightened Def Con from 7.79759e-007 to 7.80009e-007
Heightened Def Con from 7.80046e-007 to 7.81171e-007
Heightened Def Con from 7.81207e-007 to 7.81207e-007
Heightened Def Con from 7.81207e-007 to 7.81207e-007
Heightened Def Con from 7.81207e-007 to 7.82332e-007
Heightened Def Con from 7.83227e-007 to 7.83477e-007
Heightened Def Con from 7.83869e-007 to 7.83994e-007
Heightened Def Con from 7.83994e-007 to 7.85119e-007
Heightened Def Con from 7.85119e-007 to 7.85119e-007
Heightened Def Con from 7.85119e-007 to 7.85121e-007
Heightened Def Con from 7.85121e-007 +++to 7.85123e-007
Heightened Def Con from 7.85137e-007 to 7.85387e-007
Heightened Def Con from 7.85859e-007 to 7.85859e-007
Heightened Def Con from 7.85859e-007 to 7.86e-007
Heightened Def Con from 7.86126e-007 to 7.86267e-007
Heightened Def Con from 7.86323e-007 to 7.86324e-007
Heightened Def Con from 7.86587e-007 +to 7.87587e-007
Heightened Def Con from 7.89587e-007 to 7.89589e-007
Heightened Def Con from 7.89589e-007 +to 7.89605e-007
Heightened Def Con from 7.89611e-007 to 7.89613e-007
Heightened Def Con from 7.89634e-007 to 7.89636e-007
Heightened Def Con from 7.89636e-007 to 7.89638e-007
Heightened Def Con from 7.89936e-007 +to 7.89936e-007
Heightened Def Con from 7.89936e-007 to 7.90186e-007
Heightened Def Con from 7.90655e-007 to 7.9078e-007
Heightened Def Con from 7.91713e-007 to 7.91963e-007
Heightened Def Con from 7.91995e-007 to 7.92245e-007
Heightened Def Con from 7.92325e-007 to 7.9345e-007
Heightened Def Con from 7.93887e-007 to 7.94137e-007
Heightened Def Con from 7.95033e-007 to 7.95049e-007
Heightened Def Con from 7.95049e-007 ++++to 7.95049e-007
Heightened Def Con from 7.95049e-007 to 7.95049e-007
Heightened Def Con from 7.95049e-007 to 7.97049e-007
Heightened Def Con from 7.97384e-007 to 7.97384e-007
Heightened Def Con from 7.97388e-007 to 7.97388e-007
Heightened Def Con from 7.97388e-007 +to 7.97513e-007
Heightened Def Con from 7.98747e-007 to 7.98747e-007
Heightened Def Con from 7.98747e-007 to 7.98747e-007
Heightened Def Con from 7.98748e-007 +to 7.98748e-007
Heightened Def Con from 7.98748e-007 to 7.98748e-007
Heightened Def Con from 7.98748e-007 to 7.98748e-007
Heightened Def Con from 7.98748e-007 ++to 7.98748e-007
Heightened Def Con from 7.98748e-007 to 7.98765e-007
Heightened Def Con from 7.98785e-007 to 7.99786e-007
Heightened Def Con from 7.99786e-007 ++++to 7.99911e-007
Heightened Def Con from 7.99911e-007 to 7.99929e-007
Heightened Def Con from 8.0005e-007 to 8.0005e-007
Heightened Def Con from 8.00051e-007 to 8.00301e-007
Heightened Def Con from 8.01162e-007 +++to 8.02162e-007
Heightened Def Con from 8.02873e-007 ++to 8.02998e-007
Heightened Def Con from 8.02998e-007 to 8.04998e-007
Heightened Def Con from 8.11179e-007 to 8.11179e-007
Heightened Def Con from 8.11179e-007 to 8.11179e-007
Heightened Def Con from 8.11179e-007 to 8.11429e-007
Heightened Def Con from 8.13725e-007 to 8.13725e-007
Heightened Def Con from 8.13725e-007 ++to 8.14725e-007
Heightened Def Con from 8.1702e-007 to 8.1902e-007
Heightened Def Con from 8.19024e-007 +to 8.19024e-007
Heightened Def Con from 8.19024e-007 to 8.19274e-007
Heightened Def Con from 8.21112e-007 ++to 8.22112e-007
Heightened Def Con from 8.24603e-007 to 8.24728e-007
Heightened Def Con from 8.24728e-007 ++to 8.25728e-007
Heightened Def Con from 8.7807e-007 +to 8.78195e-007
Heightened Def Con from 8.78282e-007 to 8.79298e-007
Heightened Def Con from 8.79298e-007 to 8.793e-007
Heightened Def Con from 8.79301e-007 to 8.81301e-007
Heightened Def Con from 8.81408e-007 to 8.81658e-007
Heightened Def Con from 8.81908e-007 to 8.82158e-007
Heightened Def Con from 8.82404e-007 to 8.84404e-007
Heightened Def Con from 8.85154e-007 ++to 8.85279e-007
Heightened Def Con from 8.87168e-007 to 8.8717e-007
Heightened Def Con from 8.87187e-007 ++to 8.89187e-007
Heightened Def Con from 9.16384e-007 to 9.16509e-007
Heightened Def Con from 9.16954e-007 to 9.16954e-007
Heightened Def Con from 9.16954e-007 to 9.16956e-007
Heightened Def Con from 9.16956e-007 to 9.17206e-007
Heightened Def Con from 9.43194e-007 ++++to 9.44194e-007
Heightened Def Con from 1.72692e-006 to 1.72692e-006
Heightened Def Con from 1.72692e-006 to 1.72692e-006
Heightened Def Con from 1.72692e-006 to 1.72692e-006
Heightened Def Con from 1.72692e-006 to 1.72692e-006
Heightened Def Con from 1.72692e-006 to 1.72692e-006
Heightened Def Con from 1.72692e-006 to 1.72692e-006
Heightened Def Con from 1.72692e-006 to 1.72692e-006
Heightened Def Con from 1.72692e-006 to 1.72692e-006
Heightened Def Con from 1.72692e-006 to 1.72692e-006
Heightened Def Con from 1.72692e-006 to 1.72692e-006
Heightened Def Con from 1.72692e-006 to 1.72692e-006
Heightened Def Con from 1.72693e-006 to 1.72693e-006
Heightened Def Con from 1.72693e-006 to 1.72693e-006
Heightened Def Con from 1.72693e-006 to 1.72693e-006
Heightened Def Con from 1.72693e-006 to 1.72693e-006
Heightened Def Con from 1.72693e-006 to 1.72693e-006
Heightened Def Con from 1.72693e-006 to 1.72693e-006
Heightened Def Con from 1.72693e-006 to 1.72693e-006
Heightened Def Con from 1.72693e-006 to 1.72706e-006
Heightened Def Con from 1.72707e-006 to 1.72707e-006
Heightened Def Con from 1.72707e-006 to 1.72707e-006
Heightened Def Con from 1.72707e-006 to 1.72807e-006
Heightened Def Con from 1.72807e-006 to 1.72807e-006
Heightened Def Con from 1.72807e-006 to 1.72807e-006
Heightened Def Con from 1.72807e-006 to 1.72807e-006
Heightened Def Con from 1.72807e-006 to 1.72807e-006
Heightened Def Con from 1.72807e-006 to 1.72807e-006
Heightened Def Con from 1.72807e-006 to 1.72807e-006
Heightened Def Con from 1.72807e-006 to 1.72807e-006
Heightened Def Con from 1.72807e-006 to 1.72807e-006
Heightened Def Con from 1.72807e-006 to 1.72807e-006
Heightened Def Con from 1.72807e-006 to 1.72807e-006
Heightened Def Con from 1.72807e-006 to 1.72807e-006
Heightened Def Con from 1.72807e-006 to 1.72807e-006
Heightened Def Con from 1.72807e-006 to 1.72807e-006
Heightened Def Con from 1.72807e-006 to 1.72807e-006
Heightened Def Con from 1.72807e-006 to 1.72807e-006
Heightened Def Con from 1.72807e-006 to 1.72807e-006
Heightened Def Con from 1.72807e-006 to 1.72807e-006
Heightened Def Con from 1.72807e-006 to 1.72807e-006
Heightened Def Con from 1.72807e-006 to 1.72807e-006
Heightened Def Con from 1.72807e-006 to 1.72807e-006
Heightened Def Con from 1.72807e-006 to 1.72807e-006
Heightened Def Con from 1.72807e-006 to 1.72807e-006
Heightened Def Con from 1.72807e-006 to 1.72807e-006
Heightened Def Con from 1.72807e-006 to 1.72807e-006
Heightened Def Con from 1.72807e-006 to 1.72807e-006
Heightened Def Con from 1.72807e-006 to 1.72807e-006
Heightened Def Con from 1.72807e-006 to 1.72807e-006
Heightened Def Con from 1.72807e-006 to 1.72807e-006
Heightened Def Con from 1.72807e-006 to 1.72807e-006
Heightened Def Con from 1.72807e-006 to 1.72807e-006
Heightened Def Con from 1.72807e-006 to 1.72807e-006
Heightened Def Con from 1.72807e-006 to 1.72807e-006
Heightened Def Con from 1.72807e-006 to 1.72807e-006
Heightened Def Con from 1.72807e-006 to 1.72807e-006
Heightened Def Con from 1.72807e-006 to 1.72807e-006
Heightened Def Con from 1.72807e-006 to 1.72807e-006
Heightened Def Con from 1.72807e-006 to 1.72807e-006
Heightened Def Con from 1.72807e-006 to 1.72807e-006
Heightened Def Con from 1.72807e-006 to 1.72807e-006
Heightened Def Con from 1.72807e-006 to 1.72807e-006
Heightened Def Con from 1.72807e-006 to 1.72807e-006
Heightened Def Con from 1.72808e-006 to 1.72808e-006
Heightened Def Con from 1.72808e-006 to 1.72808e-006
Heightened Def Con from 1.72808e-006 to 1.72808e-006
Heightened Def Con from 1.72808e-006 to 1.72808e-006
Heightened Def Con from 1.72808e-006 to 1.72808e-006
Heightened Def Con from 1.72808e-006 to 1.72808e-006
Heightened Def Con from 1.72808e-006 to 1.72808e-006
Heightened Def Con from 1.72808e-006 to 1.72808e-006
Heightened Def Con from 1.72808e-006 to 1.72808e-006
Heightened Def Con from 1.72808e-006 to 1.72808e-006
Heightened Def Con from 1.72808e-006 to 1.72808e-006
Heightened Def Con from 1.72808e-006 to 1.72808e-006
Heightened Def Con from 1.72808e-006 to 1.72808e-006
Heightened Def Con from 1.72808e-006 to 1.72808e-006
Heightened Def Con from 1.72808e-006 to 1.72808e-006
Heightened Def Con from 1.72808e-006 to 1.72808e-006
Heightened Def Con from 1.72808e-006 to 1.72808e-006
Heightened Def Con from 1.72808e-006 to 1.72808e-006
Heightened Def Con from 1.72808e-006 to 1.72808e-006
Heightened Def Con from 1.72808e-006 to 1.72808e-006
Heightened Def Con from 1.72808e-006 to 1.72808e-006
Heightened Def Con from 1.72808e-006 to 1.72808e-006
Heightened Def Con from 1.72808e-006 to 1.72808e-006
Heightened Def Con from 1.72808e-006 to 1.72808e-006
Heightened Def Con from 1.72808e-006 to 1.72808e-006
Heightened Def Con from 1.72808e-006 to 1.72808e-006
Heightened Def Con from 1.72808e-006 to 1.72808e-006
Heightened Def Con from 1.72808e-006 to 1.72808e-006
Heightened Def Con from 1.72808e-006 to 1.72808e-006
Heightened Def Con from 1.72808e-006 to 1.72808e-006
Heightened Def Con from 1.72808e-006 to 1.72808e-006
Heightened Def Con from 1.72808e-006 to 1.72808e-006
Heightened Def Con from 1.72808e-006 to 1.72808e-006
Heightened Def Con from 1.72808e-006 to 1.72808e-006
Heightened Def Con from 1.72808e-006 to 1.72808e-006
Heightened Def Con from 1.72808e-006 to 1.72808e-006
Heightened Def Con from 1.72808e-006 to 1.72808e-006
Heightened Def Con from 1.72808e-006 to 1.72808e-006
Heightened Def Con from 1.72808e-006 to 1.72809e-006
Heightened Def Con from 1.72809e-006 to 1.72809e-006
Heightened Def Con from 1.72809e-006 to 1.72809e-006
Heightened Def Con from 1.72809e-006 to 1.72809e-006
Heightened Def Con from 1.72809e-006 to 1.72809e-006
Heightened Def Con from 1.72809e-006 to 1.72809e-006
Heightened Def Con from 1.72809e-006 to 1.72809e-006
Heightened Def Con from 1.72809e-006 to 1.72809e-006
Heightened Def Con from 1.72809e-006 to 1.72809e-006
Heightened Def Con from 1.72809e-006 to 1.72809e-006
Heightened Def Con from 1.72809e-006 to 1.72809e-006
Heightened Def Con from 1.72809e-006 to 1.72809e-006
Heightened Def Con from 1.72809e-006 to 1.72809e-006
Heightened Def Con from 1.72809e-006 to 1.72809e-006
Heightened Def Con from 1.72809e-006 to 1.72809e-006
Heightened Def Con from 1.72809e-006 to 1.72809e-006
Heightened Def Con from 1.72809e-006 to 1.72809e-006
Heightened Def Con from 1.72809e-006 to 1.72809e-006
Heightened Def Con from 1.72809e-006 to 1.72809e-006
Heightened Def Con from 1.72809e-006 to 1.72809e-006
Heightened Def Con from 1.72809e-006 to 1.72809e-006
Heightened Def Con from 1.72809e-006 to 1.72809e-006
Heightened Def Con from 1.72809e-006 to 1.72809e-006
Heightened Def Con from 1.72809e-006 to 1.72809e-006
Heightened Def Con from 1.72809e-006 to 1.72809e-006
Heightened Def Con from 1.72809e-006 to 1.72809e-006
Heightened Def Con from 1.72809e-006 to 1.72809e-006
Heightened Def Con from 1.72809e-006 to 1.72809e-006
Heightened Def Con from 1.72809e-006 to 1.72809e-006
Heightened Def Con from 1.72809e-006 to 1.72809e-006
Heightened Def Con from 1.72809e-006 to 1.72809e-006
Heightened Def Con from 1.72809e-006 to 1.72809e-006
Heightened Def Con from 1.72809e-006 to 1.72809e-006
Heightened Def Con from 1.72809e-006 to 1.72809e-006
Heightened Def Con from 1.72809e-006 to 1.72809e-006
Heightened Def Con from 1.72809e-006 to 1.72809e-006
Heightened Def Con from 1.72809e-006 to 1.72809e-006
Heightened Def Con from 1.72809e-006 to 1.72809e-006
Heightened Def Con from 1.72809e-006 to 1.72809e-006
Heightened Def Con from 1.72809e-006 to 1.72809e-006
Heightened Def Con from 1.72809e-006 to 1.72809e-006
Heightened Def Con from 1.72809e-006 to 1.7281e-006
Heightened Def Con from 1.7281e-006 to 1.7281e-006
Heightened Def Con from 1.7281e-006 to 1.7281e-006
Heightened Def Con from 1.7281e-006 to 1.7281e-006
Heightened Def Con from 1.7281e-006 to 1.7281e-006
Heightened Def Con from 1.7281e-006 to 1.7281e-006
Heightened Def Con from 1.72811e-006 to 1.72811e-006
Heightened Def Con from 1.72811e-006 to 1.72811e-006
Heightened Def Con from 1.72811e-006 to 1.72811e-006
Heightened Def Con from 1.72811e-006 to 1.72811e-006
Heightened Def Con from 1.72811e-006 to 1.72811e-006
Heightened Def Con from 1.72811e-006 to 1.72811e-006
Heightened Def Con from 1.72811e-006 to 1.72811e-006
Heightened Def Con from 1.72811e-006 to 1.72811e-006
Heightened Def Con from 1.72811e-006 to 1.72811e-006
Heightened Def Con from 1.72811e-006 to 1.72811e-006
Heightened Def Con from 1.72811e-006 to 1.72811e-006
Heightened Def Con from 1.72811e-006 to 1.72811e-006
Heightened Def Con from 1.72811e-006 to 1.72811e-006
Heightened Def Con from 1.72811e-006 to 1.72811e-006
Heightened Def Con from 1.72811e-006 to 1.72811e-006
Heightened Def Con from 1.72811e-006 to 1.72811e-006
Heightened Def Con from 1.72811e-006 to 1.72811e-006
Heightened Def Con from 1.72811e-006 to 1.72811e-006
Heightened Def Con from 1.72811e-006 to 1.72811e-006
Heightened Def Con from 1.72811e-006 to 1.72811e-006
Heightened Def Con from 1.72811e-006 to 1.72811e-006
Heightened Def Con from 1.72811e-006 to 1.72811e-006
Heightened Def Con from 1.72811e-006 to 1.72811e-006
Heightened Def Con from 1.72811e-006 to 1.72811e-006
Heightened Def Con from 1.72811e-006 to 1.72811e-006
Heightened Def Con from 1.72811e-006 to 1.72811e-006
Heightened Def Con from 1.72811e-006 to 1.72811e-006
Heightened Def Con from 1.72811e-006 to 1.72811e-006
Heightened Def Con from 1.72811e-006 to 1.72811e-006
Heightened Def Con from 1.72811e-006 to 1.72811e-006
Heightened Def Con from 1.72811e-006 to 1.72811e-006
Heightened Def Con from 1.72811e-006 to 1.72811e-006
Heightened Def Con from 1.72811e-006 to 1.72811e-006
Heightened Def Con from 1.72811e-006 to 1.72811e-006
Heightened Def Con from 1.72811e-006 to 1.72811e-006
Heightened Def Con from 1.72811e-006 to 1.72811e-006
Heightened Def Con from 1.72811e-006 to 1.72824e-006
Heightened Def Con from 1.72824e-006 to 1.72824e-006
Heightened Def Con from 1.72824e-006 to 1.72824e-006
Heightened Def Con from 1.72824e-006 to 1.72824e-006
Heightened Def Con from 1.72824e-006 to 1.72824e-006
Heightened Def Con from 1.72824e-006 +to 1.72824e-006
Heightened Def Con from 1.72824e-006 to 1.72824e-006
Heightened Def Con from 1.72824e-006 to 1.72824e-006
Heightened Def Con from 1.72824e-006 to 1.72824e-006
Heightened Def Con from 1.72824e-006 to 1.72824e-006
Heightened Def Con from 1.72824e-006 to 1.72824e-006
Heightened Def Con from 1.72824e-006 to 1.72824e-006
Heightened Def Con from 1.72824e-006 to 1.72824e-006
Heightened Def Con from 1.72824e-006 to 1.72824e-006
Heightened Def Con from 1.72824e-006 to 1.72824e-006
Heightened Def Con from 1.72824e-006 to 1.72824e-006
Heightened Def Con from 1.72824e-006 to 1.72824e-006
Heightened Def Con from 1.72824e-006 to 1.72824e-006
Heightened Def Con from 1.72824e-006 to 1.72824e-006
Heightened Def Con from 1.72824e-006 to 1.72824e-006
Heightened Def Con from 1.72824e-006 to 1.72824e-006
Heightened Def Con from 1.72824e-006 to 1.72824e-006
Heightened Def Con from 1.72824e-006 to 1.72824e-006
Heightened Def Con from 1.72824e-006 to 1.72824e-006
Heightened Def Con from 1.72824e-006 to 1.72824e-006
Heightened Def Con from 1.72824e-006 to 1.72824e-006
Heightened Def Con from 1.72824e-006 to 1.72824e-006
Heightened Def Con from 1.72824e-006 to 1.72824e-006
Heightened Def Con from 1.72824e-006 to 1.72824e-006
Heightened Def Con from 1.72824e-006 to 1.72824e-006
Heightened Def Con from 1.72824e-006 to 1.72824e-006
Heightened Def Con from 1.72824e-006 to 1.72824e-006
Heightened Def Con from 1.72824e-006 to 1.72824e-006
Heightened Def Con from 1.72824e-006 to 1.72824e-006
Heightened Def Con from 1.72824e-006 to 1.72824e-006
Heightened Def Con from 1.72824e-006 to 1.72824e-006
Heightened Def Con from 1.72824e-006 to 1.72824e-006
Heightened Def Con from 1.72824e-006 to 1.72824e-006
Heightened Def Con from 1.72824e-006 to 1.72824e-006
Heightened Def Con from 1.72824e-006 to 1.72824e-006
Heightened Def Con from 1.72824e-006 to 1.72824e-006
Heightened Def Con from 1.72825e-006 to 1.72825e-006
Heightened Def Con from 1.72825e-006 to 1.72825e-006
Heightened Def Con from 1.72825e-006 to 1.72825e-006
Heightened Def Con from 1.72825e-006 to 1.72825e-006
Heightened Def Con from 1.72825e-006 to 1.72825e-006
Heightened Def Con from 1.72825e-006 to 1.72825e-006
Heightened Def Con from 1.72825e-006 to 1.72825e-006
Heightened Def Con from 1.72825e-006 to 1.72825e-006
Heightened Def Con from 1.72825e-006 to 1.72825e-006
Heightened Def Con from 1.72825e-006 to 1.72825e-006
Heightened Def Con from 1.72825e-006 to 1.72825e-006
Heightened Def Con from 1.72825e-006 to 1.72825e-006
Heightened Def Con from 1.72825e-006 to 1.72825e-006
Heightened Def Con from 1.72825e-006 to 1.72825e-006
Heightened Def Con from 1.72825e-006 to 1.72825e-006
Heightened Def Con from 1.72825e-006 to 1.72825e-006
Heightened Def Con from 1.72825e-006 to 1.72825e-006
Heightened Def Con from 1.72825e-006 to 1.72825e-006
Heightened Def Con from 1.72825e-006 to 1.72825e-006
Heightened Def Con from 1.72825e-006 to 1.72825e-006
Heightened Def Con from 1.72825e-006 to 1.72825e-006
Heightened Def Con from 1.72825e-006 to 1.72825e-006
Heightened Def Con from 1.72825e-006 to 1.72825e-006
Heightened Def Con from 1.72825e-006 to 1.72837e-006
Heightened Def Con from 1.72837e-006 to 1.72837e-006
Heightened Def Con from 1.72837e-006 to 1.72837e-006
Heightened Def Con from 1.72837e-006 to 1.72837e-006
Heightened Def Con from 1.72837e-006 to 1.72837e-006
Heightened Def Con from 1.72837e-006 to 1.72837e-006
Heightened Def Con from 1.72837e-006 to 1.72837e-006
Heightened Def Con from 1.72837e-006 to 1.72837e-006
Heightened Def Con from 1.72837e-006 to 1.72837e-006
Heightened Def Con from 1.72837e-006 to 1.72837e-006
Heightened Def Con from 1.72837e-006 to 1.72837e-006
Heightened Def Con from 1.72838e-006 to 1.72838e-006
Heightened Def Con from 1.72838e-006 to 1.72838e-006
Heightened Def Con from 1.72838e-006 to 1.72838e-006
Heightened Def Con from 1.72838e-006 to 1.72838e-006
Heightened Def Con from 1.72838e-006 to 1.72838e-006
Heightened Def Con from 1.72838e-006 to 1.72838e-006
Heightened Def Con from 1.72838e-006 to 1.72838e-006
Heightened Def Con from 1.72838e-006 to 1.72838e-006
Heightened Def Con from 1.72838e-006 to 1.72838e-006
Heightened Def Con from 1.72838e-006 to 1.72838e-006
Heightened Def Con from 1.72838e-006 to 1.72838e-006
Heightened Def Con from 1.72838e-006 to 1.72838e-006
Heightened Def Con from 1.72838e-006 to 1.72838e-006
Heightened Def Con from 1.72838e-006 to 1.72838e-006
Heightened Def Con from 1.72838e-006 to 1.72838e-006
Heightened Def Con from 1.72838e-006 to 1.72838e-006
Heightened Def Con from 1.72838e-006 to 1.72838e-006
Heightened Def Con from 1.72838e-006 to 1.72838e-006
Heightened Def Con from 1.72838e-006 to 1.72838e-006
Heightened Def Con from 1.72838e-006 to 1.72838e-006
Heightened Def Con from 1.72838e-006 to 1.72838e-006
Heightened Def Con from 1.72838e-006 to 1.72838e-006
Heightened Def Con from 1.72838e-006 to 1.72838e-006
Heightened Def Con from 1.72838e-006 to 1.7285e-006
Heightened Def Con from 1.7285e-006 to 1.72863e-006
Heightened Def Con from 1.72863e-006 to 1.72863e-006
Heightened Def Con from 1.72863e-006 to 1.72863e-006
Heightened Def Con from 1.72863e-006 to 1.72863e-006
Heightened Def Con from 1.72863e-006 to 1.72863e-006
Heightened Def Con from 1.72863e-006 to 1.72863e-006
Heightened Def Con from 1.72863e-006 to 1.72876e-006
Heightened Def Con from 1.72876e-006 to 1.72876e-006
Heightened Def Con from 1.72876e-006 to 1.72876e-006
Heightened Def Con from 1.72876e-006 to 1.72876e-006
Heightened Def Con from 1.72876e-006 to 1.72876e-006
Heightened Def Con from 1.72876e-006 to 1.72876e-006
Heightened Def Con from 1.72876e-006 to 1.72876e-006
Heightened Def Con from 1.72876e-006 to 1.72876e-006
Heightened Def Con from 1.72876e-006 to 1.72876e-006
Heightened Def Con from 1.72876e-006 to 1.72876e-006
Heightened Def Con from 1.72876e-006 to 1.72876e-006
Heightened Def Con from 1.72876e-006 to 1.72876e-006
Heightened Def Con from 1.72876e-006 to 1.72876e-006
Heightened Def Con from 1.72876e-006 to 1.72876e-006
Heightened Def Con from 1.72876e-006 to 1.72876e-006
Heightened Def Con from 1.72876e-006 to 1.72876e-006
Heightened Def Con from 1.72876e-006 to 1.72876e-006
Heightened Def Con from 1.72876e-006 to 1.72876e-006
Heightened Def Con from 1.72876e-006 to 1.72876e-006
Heightened Def Con from 1.72876e-006 to 1.72876e-006
Heightened Def Con from 1.72876e-006 to 1.72876e-006
Heightened Def Con from 1.72876e-006 to 1.72876e-006
Heightened Def Con from 1.72876e-006 to 1.72876e-006
Heightened Def Con from 1.72876e-006 to 1.72876e-006
Heightened Def Con from 1.72876e-006 to 1.72876e-006
Heightened Def Con from 1.72876e-006 to 1.72876e-006
Heightened Def Con from 1.72876e-006 to 1.72876e-006
Heightened Def Con from 1.72876e-006 to 1.72876e-006
Heightened Def Con from 1.72876e-006 to 1.72876e-006
Heightened Def Con from 1.72876e-006 to 1.72876e-006
Heightened Def Con from 1.72876e-006 to 1.72876e-006
Heightened Def Con from 1.72876e-006 to 1.72876e-006
Heightened Def Con from 1.72876e-006 to 1.72876e-006
Heightened Def Con from 1.72876e-006 to 1.72876e-006
Heightened Def Con from 1.72876e-006 to 1.72876e-006
Heightened Def Con from 1.72876e-006 to 1.72876e-006
Heightened Def Con from 1.72876e-006 to 1.72876e-006
Heightened Def Con from 1.72876e-006 to 1.72876e-006
Heightened Def Con from 1.72876e-006 to 1.72876e-006
Heightened Def Con from 1.72876e-006 to 1.72876e-006
Heightened Def Con from 1.72876e-006 to 1.72876e-006
Heightened Def Con from 1.72876e-006 to 1.72877e-006
Heightened Def Con from 1.72877e-006 to 1.72877e-006
Heightened Def Con from 1.72877e-006 to 1.72877e-006
Heightened Def Con from 1.72877e-006 to 1.72877e-006
Heightened Def Con from 1.72877e-006 to 1.72877e-006
Heightened Def Con from 1.72877e-006 to 1.72877e-006
Heightened Def Con from 1.72877e-006 to 1.72877e-006
Heightened Def Con from 1.72877e-006 to 1.72877e-006
Heightened Def Con from 1.72877e-006 to 1.72877e-006
Heightened Def Con from 1.72877e-006 to 1.72877e-006
Heightened Def Con from 1.72877e-006 to 1.72877e-006
Heightened Def Con from 1.72877e-006 to 1.72877e-006
Heightened Def Con from 1.72877e-006 to 1.72877e-006
Heightened Def Con from 1.72877e-006 to 1.72877e-006
Heightened Def Con from 1.72877e-006 to 1.72877e-006
Heightened Def Con from 1.72877e-006 to 1.72877e-006
Heightened Def Con from 1.72877e-006 to 1.72877e-006
Heightened Def Con from 1.72877e-006 to 1.72877e-006
Heightened Def Con from 1.72877e-006 to 1.72877e-006
Heightened Def Con from 1.72877e-006 to 1.72877e-006
Heightened Def Con from 1.72877e-006 to 1.72877e-006
Heightened Def Con from 1.72877e-006 to 1.72877e-006
Heightened Def Con from 1.72877e-006 to 1.72877e-006
Heightened Def Con from 1.72877e-006 to 1.72977e-006
Heightened Def Con from 1.72977e-006 to 1.72977e-006
Heightened Def Con from 1.72977e-006 to 1.72977e-006
Heightened Def Con from 1.72977e-006 to 1.72977e-006
Heightened Def Con from 1.72977e-006 to 1.72977e-006
Heightened Def Con from 1.72977e-006 to 1.72977e-006
Heightened Def Con from 1.72977e-006 to 1.72977e-006
Heightened Def Con from 1.72977e-006 to 1.72977e-006
Heightened Def Con from 1.72977e-006 to 1.72977e-006
Heightened Def Con from 1.72977e-006 to 1.72977e-006
Heightened Def Con from 1.72977e-006 to 1.72977e-006
Heightened Def Con from 1.72977e-006 to 1.72977e-006
Heightened Def Con from 1.72977e-006 to 1.72977e-006
Heightened Def Con from 1.72977e-006 to 1.72977e-006
Heightened Def Con from 1.72977e-006 to 1.72977e-006
Heightened Def Con from 1.72977e-006 to 1.72977e-006
Heightened Def Con from 1.72977e-006 to 1.72977e-006
Heightened Def Con from 1.72977e-006 to 1.72977e-006
Heightened Def Con from 1.72977e-006 to 1.72977e-006
Heightened Def Con from 1.72977e-006 to 1.72977e-006
Heightened Def Con from 1.72977e-006 to 1.72977e-006
Heightened Def Con from 1.72977e-006 to 1.72977e-006
Heightened Def Con from 1.72977e-006 to 1.72977e-006
Heightened Def Con from 1.72977e-006 to 1.72977e-006
Heightened Def Con from 1.72977e-006 to 1.72977e-006
Heightened Def Con from 1.72977e-006 to 1.72977e-006
Heightened Def Con from 1.72977e-006 to 1.72977e-006
Heightened Def Con from 1.72977e-006 to 1.72977e-006
Heightened Def Con from 1.72977e-006 to 1.72977e-006
Heightened Def Con from 1.72977e-006 to 1.72977e-006
Heightened Def Con from 1.72977e-006 to 1.72977e-006
Heightened Def Con from 1.72977e-006 to 1.72977e-006
Heightened Def Con from 1.72977e-006 to 1.72977e-006
Heightened Def Con from 1.72978e-006 to 1.72978e-006
Heightened Def Con from 1.72978e-006 to 1.72978e-006
Heightened Def Con from 1.72979e-006 to 1.72979e-006
Heightened Def Con from 1.72979e-006 to 1.72979e-006
Heightened Def Con from 1.72979e-006 to 1.72979e-006
Heightened Def Con from 1.72979e-006 to 1.72979e-006
Heightened Def Con from 1.72979e-006 to 1.72979e-006
Heightened Def Con from 1.72979e-006 to 1.72979e-006
Heightened Def Con from 1.72979e-006 +to 1.72979e-006
Heightened Def Con from 1.72979e-006 to 1.72979e-006
Heightened Def Con from 1.72979e-006 to 1.72979e-006
Heightened Def Con from 1.72979e-006 to 1.72979e-006
Heightened Def Con from 1.72979e-006 to 1.72979e-006
Heightened Def Con from 1.72979e-006 to 1.72979e-006
Heightened Def Con from 1.72979e-006 to 1.72979e-006
Heightened Def Con from 1.72979e-006 to 1.72979e-006
Heightened Def Con from 1.72979e-006 to 1.72991e-006
Heightened Def Con from 1.72991e-006 to 1.72991e-006
Heightened Def Con from 1.72991e-006 to 1.72991e-006
Heightened Def Con from 1.72991e-006 to 1.72991e-006
Heightened Def Con from 1.72991e-006 to 1.72991e-006
Heightened Def Con from 1.72991e-006 to 1.72991e-006
Heightened Def Con from 1.72991e-006 +to 1.72991e-006
Heightened Def Con from 1.72991e-006 to 1.72991e-006
Heightened Def Con from 1.72991e-006 to 1.72991e-006
Heightened Def Con from 1.72991e-006 to 1.72991e-006
Heightened Def Con from 1.72991e-006 to 1.72991e-006
Heightened Def Con from 1.72991e-006 to 1.72991e-006
Heightened Def Con from 1.72991e-006 to 1.72991e-006
Heightened Def Con from 1.72991e-006 to 1.72992e-006
Heightened Def Con from 1.72992e-006 to 1.72992e-006
Heightened Def Con from 1.72992e-006 to 1.72992e-006
Heightened Def Con from 1.72992e-006 to 1.72992e-006
Heightened Def Con from 1.72992e-006 to 1.72992e-006
Heightened Def Con from 1.72992e-006 to 1.72992e-006
Heightened Def Con from 1.72992e-006 to 1.72992e-006
Heightened Def Con from 1.72992e-006 to 1.73004e-006
Heightened Def Con from 1.73005e-006 to 1.73005e-006
Heightened Def Con from 1.73006e-006 to 1.73006e-006
Heightened Def Con from 1.73006e-006 to 1.73006e-006
Heightened Def Con from 1.73006e-006 to 1.73006e-006
Heightened Def Con from 1.73006e-006 to 1.73006e-006
Heightened Def Con from 1.73006e-006 to 1.73006e-006
Heightened Def Con from 1.73006e-006 to 1.73006e-006
Heightened Def Con from 1.73006e-006 to 1.73006e-006
Heightened Def Con from 1.73006e-006 to 1.73006e-006
Heightened Def Con from 1.73006e-006 to 1.73006e-006
Heightened Def Con from 1.73006e-006 +to 1.73106e-006
Heightened Def Con from 1.73106e-006 +to 1.73106e-006
Heightened Def Con from 1.73106e-006 to 1.73106e-006
Heightened Def Con from 1.73106e-006 to 1.73106e-006
Heightened Def Con from 1.73106e-006 to 1.73106e-006
Heightened Def Con from 1.73106e-006 to 1.73106e-006
Heightened Def Con from 1.73106e-006 to 1.73106e-006
Heightened Def Con from 1.73106e-006 to 1.73106e-006
Heightened Def Con from 1.73106e-006 to 1.73106e-006
Heightened Def Con from 1.73106e-006 to 1.73106e-006
Heightened Def Con from 1.73106e-006 to 1.73106e-006
Heightened Def Con from 1.73106e-006 to 1.73106e-006
Heightened Def Con from 1.73106e-006 to 1.73106e-006
Heightened Def Con from 1.73106e-006 to 1.73106e-006
Heightened Def Con from 1.73106e-006 to 1.73106e-006
Heightened Def Con from 1.73106e-006 to 1.73106e-006
Heightened Def Con from 1.73107e-006 to 1.73107e-006
Heightened Def Con from 1.73107e-006 to 1.73107e-006
Heightened Def Con from 1.73107e-006 to 1.73107e-006
Heightened Def Con from 1.73107e-006 to 1.73107e-006
Heightened Def Con from 1.73107e-006 to 1.73107e-006
Heightened Def Con from 1.73107e-006 to 1.73107e-006
Heightened Def Con from 1.73107e-006 to 1.73107e-006
Heightened Def Con from 1.73107e-006 to 1.73107e-006
Heightened Def Con from 1.73107e-006 to 1.73107e-006
Heightened Def Con from 1.73107e-006 to 1.73107e-006
Heightened Def Con from 1.73107e-006 to 1.73107e-006
Heightened Def Con from 1.73107e-006 to 1.73107e-006
Heightened Def Con from 1.73107e-006 to 1.73107e-006
Heightened Def Con from 1.73107e-006 to 1.73107e-006
Heightened Def Con from 1.73107e-006 to 1.73119e-006
Heightened Def Con from 1.7312e-006 to 1.7312e-006
Heightened Def Con from 1.7312e-006 to 1.7312e-006
Heightened Def Con from 1.7312e-006 to 1.7312e-006
Heightened Def Con from 1.7312e-006 to 1.7312e-006
Heightened Def Con from 1.7312e-006 +to 1.7312e-006
Heightened Def Con from 1.7312e-006 to 1.7312e-006
Heightened Def Con from 1.7312e-006 to 1.7312e-006
Heightened Def Con from 1.7312e-006 to 1.7312e-006
Heightened Def Con from 1.7312e-006 to 1.7312e-006
Heightened Def Con from 1.7312e-006 to 1.7312e-006
Heightened Def Con from 1.7312e-006 to 1.7312e-006
Heightened Def Con from 1.7312e-006 to 1.7312e-006
Heightened Def Con from 1.7312e-006 to 1.7312e-006
Heightened Def Con from 1.7312e-006 to 1.7312e-006
Heightened Def Con from 1.7312e-006 to 1.7312e-006
Heightened Def Con from 1.7312e-006 to 1.7312e-006
Heightened Def Con from 1.7312e-006 to 1.7312e-006
Heightened Def Con from 1.7312e-006 to 1.7312e-006
Heightened Def Con from 1.7312e-006 to 1.7312e-006
Heightened Def Con from 1.7312e-006 to 1.7312e-006
Heightened Def Con from 1.7312e-006 to 1.7312e-006
Heightened Def Con from 1.7312e-006 to 1.7312e-006
Heightened Def Con from 1.7312e-006 to 1.7312e-006
Heightened Def Con from 1.7312e-006 to 1.7312e-006
Heightened Def Con from 1.7312e-006 to 1.7312e-006
Heightened Def Con from 1.7312e-006 to 1.7312e-006
Heightened Def Con from 1.7312e-006 to 1.7312e-006
Heightened Def Con from 1.7312e-006 to 1.7312e-006
Heightened Def Con from 1.7312e-006 to 1.7312e-006
Heightened Def Con from 1.7312e-006 to 1.7312e-006
Heightened Def Con from 1.7312e-006 to 1.7312e-006
Heightened Def Con from 1.7312e-006 to 1.7312e-006
Heightened Def Con from 1.7312e-006 to 1.7312e-006
Heightened Def Con from 1.7312e-006 to 1.7312e-006
Heightened Def Con from 1.7312e-006 to 1.7312e-006
Heightened Def Con from 1.7312e-006 to 1.7312e-006
Heightened Def Con from 1.7312e-006 to 1.7312e-006
Heightened Def Con from 1.7312e-006 to 1.7312e-006
Heightened Def Con from 1.7312e-006 to 1.7312e-006
Heightened Def Con from 1.7312e-006 to 1.7312e-006
Heightened Def Con from 1.7312e-006 to 1.7312e-006
Heightened Def Con from 1.7312e-006 to 1.7312e-006
Heightened Def Con from 1.7312e-006 to 1.7312e-006
Heightened Def Con from 1.7312e-006 to 1.7312e-006
Heightened Def Con from 1.73121e-006 to 1.73121e-006
Heightened Def Con from 1.73121e-006 to 1.73121e-006
Heightened Def Con from 1.73121e-006 to 1.73121e-006
Heightened Def Con from 1.73121e-006 to 1.73121e-006
Heightened Def Con from 1.73121e-006 to 1.73121e-006
Heightened Def Con from 1.73121e-006 to 1.73121e-006
Heightened Def Con from 1.73121e-006 to 1.73121e-006
Heightened Def Con from 1.73121e-006 to 1.73121e-006
Heightened Def Con from 1.73121e-006 to 1.73121e-006
Heightened Def Con from 1.73121e-006 to 1.73121e-006
Heightened Def Con from 1.73121e-006 to 1.73121e-006
Heightened Def Con from 1.73121e-006 to 1.73121e-006
Heightened Def Con from 1.73121e-006 to 1.73121e-006
Heightened Def Con from 1.73121e-006 to 1.73121e-006
Heightened Def Con from 1.73121e-006 to 1.73121e-006
Heightened Def Con from 1.73121e-006 to 1.73121e-006
Heightened Def Con from 1.73121e-006 to 1.73121e-006
Heightened Def Con from 1.73121e-006 to 1.73121e-006
Heightened Def Con from 1.73121e-006 to 1.73121e-006
Heightened Def Con from 1.73121e-006 to 1.73121e-006
Heightened Def Con from 1.73121e-006 to 1.73121e-006
Heightened Def Con from 1.73121e-006 to 1.73121e-006
Heightened Def Con from 1.73121e-006 to 1.73121e-006
Heightened Def Con from 1.73121e-006 to 1.73121e-006
Heightened Def Con from 1.73121e-006 to 1.73121e-006
Heightened Def Con from 1.73121e-006 to 1.73121e-006
Heightened Def Con from 1.73121e-006 to 1.73121e-006
Heightened Def Con from 1.73121e-006 to 1.73121e-006
Heightened Def Con from 1.73121e-006 to 1.73121e-006
Heightened Def Con from 1.73121e-006 to 1.73121e-006
Heightened Def Con from 1.73121e-006 to 1.73121e-006
Heightened Def Con from 1.73121e-006 to 1.73121e-006
Heightened Def Con from 1.73121e-006 to 1.73121e-006
Heightened Def Con from 1.73121e-006 to 1.73121e-006
Heightened Def Con from 1.73121e-006 to 1.73121e-006
Heightened Def Con from 1.73121e-006 to 1.73121e-006
Heightened Def Con from 1.73121e-006 to 1.73121e-006
Heightened Def Con from 1.73121e-006 to 1.73121e-006
Heightened Def Con from 1.73121e-006 to 1.73121e-006
Heightened Def Con from 1.73121e-006 to 1.73121e-006
Heightened Def Con from 1.73121e-006 to 1.73122e-006
Heightened Def Con from 1.73122e-006 to 1.73122e-006
Heightened Def Con from 1.73122e-006 to 1.73122e-006
Heightened Def Con from 1.73122e-006 to 1.73122e-006
Heightened Def Con from 1.73122e-006 to 1.73122e-006
Heightened Def Con from 1.73122e-006 to 1.73122e-006
Heightened Def Con from 1.73122e-006 to 1.73122e-006
Heightened Def Con from 1.73122e-006 ++to 1.73122e-006
Heightened Def Con from 1.73122e-006 to 1.73122e-006
Heightened Def Con from 1.73122e-006 to 1.73122e-006
Heightened Def Con from 1.73122e-006 to 1.73122e-006
Heightened Def Con from 1.73122e-006 to 1.73122e-006
Heightened Def Con from 1.73122e-006 to 1.73122e-006
Heightened Def Con from 1.73122e-006 to 1.73122e-006
Heightened Def Con from 1.73122e-006 to 1.73122e-006
Heightened Def Con from 1.73122e-006 to 1.73122e-006
Heightened Def Con from 1.73122e-006 to 1.73122e-006
Heightened Def Con from 1.73122e-006 to 1.73122e-006
Heightened Def Con from 1.73122e-006 to 1.73122e-006
Heightened Def Con from 1.73122e-006 to 1.73122e-006
Heightened Def Con from 1.73122e-006 to 1.73122e-006
Heightened Def Con from 1.73122e-006 to 1.73122e-006
Heightened Def Con from 1.73122e-006 to 1.73122e-006
Heightened Def Con from 1.73122e-006 to 1.73122e-006
Heightened Def Con from 1.73122e-006 to 1.73122e-006
Heightened Def Con from 1.73122e-006 to 1.73122e-006
Heightened Def Con from 1.73122e-006 to 1.73122e-006
Heightened Def Con from 1.73122e-006 to 1.73122e-006
Heightened Def Con from 1.73122e-006 to 1.73122e-006
Heightened Def Con from 1.73122e-006 to 1.73122e-006
Heightened Def Con from 1.73122e-006 to 1.73122e-006
Heightened Def Con from 1.73122e-006 to 1.73122e-006
Heightened Def Con from 1.73122e-006 to 1.73122e-006
Heightened Def Con from 1.73122e-006 to 1.73122e-006
Heightened Def Con from 1.73122e-006 to 1.73122e-006
Heightened Def Con from 1.73122e-006 to 1.73122e-006
Heightened Def Con from 1.73122e-006 to 1.73122e-006
Heightened Def Con from 1.73122e-006 to 1.73122e-006
Heightened Def Con from 1.73122e-006 to 1.73122e-006
Heightened Def Con from 1.73122e-006 to 1.73122e-006
Heightened Def Con from 1.73122e-006 to 1.73122e-006
Heightened Def Con from 1.73122e-006 to 1.73122e-006
Heightened Def Con from 1.73122e-006 to 1.73122e-006
Heightened Def Con from 1.73122e-006 to 1.73122e-006
Heightened Def Con from 1.73122e-006 to 1.73122e-006
Heightened Def Con from 1.73122e-006 to 1.73122e-006
Heightened Def Con from 1.73122e-006 to 1.73122e-006
Heightened Def Con from 1.73122e-006 to 1.73122e-006
Heightened Def Con from 1.73122e-006 +to 1.73122e-006
Heightened Def Con from 1.73122e-006 to 1.73122e-006
Heightened Def Con from 1.73122e-006 to 1.73122e-006
Heightened Def Con from 1.73122e-006 to 1.73122e-006
Heightened Def Con from 1.73122e-006 to 1.73122e-006
Heightened Def Con from 1.73122e-006 to 1.73122e-006
Heightened Def Con from 1.73122e-006 to 1.73122e-006
Heightened Def Con from 1.73122e-006 to 1.73122e-006
Heightened Def Con from 1.73122e-006 to 1.73122e-006
Heightened Def Con from 1.73122e-006 to 1.73122e-006
Heightened Def Con from 1.73122e-006 to 1.73122e-006
Heightened Def Con from 1.73122e-006 to 1.73122e-006
Heightened Def Con from 1.73122e-006 to 1.73122e-006
Heightened Def Con from 1.73122e-006 to 1.73122e-006
Heightened Def Con from 1.73122e-006 to 1.73122e-006
Heightened Def Con from 1.73122e-006 to 1.73122e-006
Heightened Def Con from 1.73122e-006 to 1.73122e-006
Heightened Def Con from 1.73122e-006 to 1.73122e-006
Heightened Def Con from 1.73122e-006 to 1.73122e-006
Heightened Def Con from 1.73122e-006 to 1.73122e-006
Heightened Def Con from 1.73122e-006 to 1.73122e-006
Heightened Def Con from 1.73122e-006 to 1.73122e-006
Heightened Def Con from 1.73122e-006 to 1.73122e-006
Heightened Def Con from 1.73122e-006 to 1.73122e-006
Heightened Def Con from 1.73122e-006 to 1.73122e-006
Heightened Def Con from 1.73122e-006 to 1.73135e-006
Heightened Def Con from 1.73135e-006 to 1.73135e-006
Heightened Def Con from 1.73135e-006 to 1.73135e-006
Heightened Def Con from 1.73135e-006 to 1.73135e-006
Heightened Def Con from 1.73135e-006 to 1.73135e-006
Heightened Def Con from 1.73135e-006 to 1.73135e-006
Heightened Def Con from 1.73135e-006 to 1.73135e-006
Heightened Def Con from 1.73135e-006 to 1.73135e-006
Heightened Def Con from 1.73135e-006 to 1.73135e-006
Heightened Def Con from 1.73135e-006 to 1.73135e-006
Heightened Def Con from 1.73135e-006 to 1.73135e-006
Heightened Def Con from 1.73135e-006 to 1.73135e-006
Heightened Def Con from 1.73135e-006 to 1.73135e-006
Heightened Def Con from 1.73135e-006 to 1.73135e-006
Heightened Def Con from 1.73135e-006 to 1.73135e-006
Heightened Def Con from 1.73135e-006 to 1.73135e-006
Heightened Def Con from 1.73135e-006 to 1.73135e-006
Heightened Def Con from 1.73135e-006 to 1.73135e-006
Heightened Def Con from 1.73135e-006 to 1.73135e-006
Heightened Def Con from 1.73135e-006 to 1.73135e-006
Heightened Def Con from 1.73135e-006 to 1.73135e-006
Heightened Def Con from 1.73135e-006 to 1.73135e-006
Heightened Def Con from 1.73135e-006 to 1.73135e-006
Heightened Def Con from 1.73135e-006 to 1.73135e-006
Heightened Def Con from 1.73135e-006 to 1.73135e-006
Heightened Def Con from 1.73135e-006 to 1.73135e-006
Heightened Def Con from 1.73135e-006 to 1.73135e-006
Heightened Def Con from 1.73135e-006 to 1.73135e-006
Heightened Def Con from 1.73135e-006 to 1.73135e-006
Heightened Def Con from 1.73135e-006 to 1.73135e-006
Heightened Def Con from 1.73135e-006 to 1.73135e-006
Heightened Def Con from 1.73135e-006 to 1.73135e-006
Heightened Def Con from 1.73135e-006 to 1.73135e-006
Heightened Def Con from 1.73135e-006 to 1.73135e-006
Heightened Def Con from 1.73135e-006 to 1.73135e-006
Heightened Def Con from 1.73135e-006 to 1.73135e-006
Heightened Def Con from 1.73135e-006 to 1.73135e-006
Heightened Def Con from 1.73135e-006 to 1.73135e-006
Heightened Def Con from 1.73135e-006 to 1.73135e-006
Heightened Def Con from 1.73135e-006 to 1.73135e-006
Heightened Def Con from 1.73135e-006 to 1.73135e-006
Heightened Def Con from 1.73135e-006 to 1.73135e-006
Heightened Def Con from 1.73135e-006 to 1.73135e-006
Heightened Def Con from 1.73135e-006 to 1.73135e-006
Heightened Def Con from 1.73135e-006 to 1.73135e-006
Heightened Def Con from 1.73135e-006 to 1.73135e-006
Heightened Def Con from 1.73136e-006 to 1.73136e-006
Heightened Def Con from 1.73136e-006 to 1.73136e-006
Heightened Def Con from 1.73136e-006 to 1.73136e-006
Heightened Def Con from 1.73136e-006 to 1.73136e-006
Heightened Def Con from 1.73136e-006 to 1.73136e-006
Heightened Def Con from 1.73136e-006 to 1.73136e-006
Heightened Def Con from 1.73136e-006 to 1.73136e-006
Heightened Def Con from 1.73136e-006 to 1.73136e-006
Heightened Def Con from 1.73136e-006 to 1.73136e-006
Heightened Def Con from 1.73136e-006 to 1.73136e-006
Heightened Def Con from 1.73136e-006 to 1.73136e-006
Heightened Def Con from 1.73136e-006 to 1.73136e-006
Heightened Def Con from 1.73136e-006 to 1.73136e-006
Heightened Def Con from 1.73136e-006 to 1.73136e-006
Heightened Def Con from 1.73136e-006 to 1.73136e-006
Heightened Def Con from 1.73136e-006 to 1.73136e-006
Heightened Def Con from 1.73136e-006 to 1.73136e-006
Heightened Def Con from 1.73136e-006 to 1.73136e-006
Heightened Def Con from 1.73136e-006 to 1.73136e-006
Heightened Def Con from 1.73136e-006 to 1.73136e-006
Heightened Def Con from 1.73136e-006 to 1.73136e-006
Heightened Def Con from 1.73136e-006 to 1.73136e-006
Heightened Def Con from 1.73136e-006 to 1.73136e-006
Heightened Def Con from 1.73136e-006 to 1.73136e-006
Heightened Def Con from 1.73136e-006 to 1.73136e-006
Heightened Def Con from 1.73136e-006 to 1.73136e-006
Heightened Def Con from 1.73136e-006 to 1.73136e-006
Heightened Def Con from 1.73136e-006 to 1.73136e-006
Heightened Def Con from 1.73136e-006 to 1.73136e-006
Heightened Def Con from 1.73136e-006 to 1.73136e-006
Heightened Def Con from 1.73136e-006 to 1.73136e-006
Heightened Def Con from 1.73136e-006 to 1.73136e-006
Heightened Def Con from 1.73136e-006 to 1.73136e-006
Heightened Def Con from 1.73136e-006 to 1.73136e-006
Heightened Def Con from 1.73136e-006 to 1.73136e-006
Heightened Def Con from 1.73136e-006 to 1.73136e-006
Heightened Def Con from 1.73136e-006 to 1.73136e-006
Heightened Def Con from 1.73136e-006 to 1.73137e-006
Heightened Def Con from 1.73137e-006 to 1.73137e-006
Heightened Def Con from 1.73137e-006 to 1.73137e-006
Heightened Def Con from 1.73137e-006 to 1.73137e-006
Heightened Def Con from 1.73137e-006 to 1.73137e-006
Heightened Def Con from 1.73137e-006 to 1.73137e-006
Heightened Def Con from 1.73137e-006 to 1.73137e-006
Heightened Def Con from 1.73137e-006 to 1.73137e-006
Heightened Def Con from 1.73137e-006 to 1.73137e-006
Heightened Def Con from 1.73137e-006 to 1.73137e-006
Heightened Def Con from 1.73137e-006 to 1.73137e-006
Heightened Def Con from 1.73137e-006 to 1.73137e-006
Heightened Def Con from 1.73137e-006 to 1.73137e-006
Heightened Def Con from 1.73137e-006 to 1.73137e-006
Heightened Def Con from 1.73137e-006 to 1.73137e-006
Heightened Def Con from 1.73137e-006 to 1.73137e-006
Heightened Def Con from 1.73137e-006 to 1.73137e-006
Heightened Def Con from 1.73137e-006 to 1.73137e-006
Heightened Def Con from 1.73137e-006 to 1.73137e-006
Heightened Def Con from 1.73137e-006 to 1.73137e-006
Heightened Def Con from 1.73137e-006 to 1.73137e-006
Heightened Def Con from 1.73137e-006 to 1.73137e-006
Heightened Def Con from 1.73137e-006 to 1.73137e-006
Heightened Def Con from 1.73137e-006 to 1.73137e-006
Heightened Def Con from 1.73137e-006 to 1.73137e-006
Heightened Def Con from 1.73137e-006 to 1.73137e-006
Heightened Def Con from 1.73137e-006 to 1.73137e-006
Heightened Def Con from 1.73137e-006 to 1.73137e-006
Heightened Def Con from 1.73137e-006 to 1.73137e-006
Heightened Def Con from 1.73137e-006 to 1.73137e-006
Heightened Def Con from 1.73137e-006 to 1.73137e-006
Heightened Def Con from 1.73137e-006 to 1.73137e-006
Heightened Def Con from 1.73137e-006 to 1.73137e-006
Heightened Def Con from 1.73137e-006 to 1.73137e-006
Heightened Def Con from 1.73137e-006 to 1.73137e-006
Heightened Def Con from 1.73137e-006 to 1.73137e-006
Heightened Def Con from 1.73137e-006 to 1.73137e-006
Heightened Def Con from 1.73137e-006 to 1.73137e-006
Heightened Def Con from 1.73137e-006 to 1.73137e-006
Heightened Def Con from 1.73137e-006 to 1.73137e-006
Heightened Def Con from 1.73137e-006 to 1.73137e-006
Heightened Def Con from 1.73137e-006 to 1.73137e-006
Heightened Def Con from 1.73137e-006 to 1.73137e-006
Heightened Def Con from 1.73137e-006 to 1.73137e-006
Heightened Def Con from 1.73137e-006 to 1.73137e-006
Heightened Def Con from 1.73137e-006 to 1.73137e-006
Heightened Def Con from 1.73137e-006 to 1.7315e-006
Heightened Def Con from 1.7315e-006 to 1.7315e-006
Heightened Def Con from 1.7315e-006 to 1.7315e-006
Heightened Def Con from 1.7315e-006 to 1.7315e-006
Heightened Def Con from 1.7315e-006 to 1.7315e-006
Heightened Def Con from 1.7315e-006 to 1.7315e-006
Heightened Def Con from 1.7315e-006 to 1.7325e-006
Heightened Def Con from 1.7325e-006 to 1.7325e-006
Heightened Def Con from 1.7325e-006 to 1.7325e-006
Heightened Def Con from 1.7325e-006 to 1.7325e-006
Heightened Def Con from 1.7325e-006 to 1.7325e-006
Heightened Def Con from 1.7325e-006 to 1.7325e-006
Heightened Def Con from 1.7325e-006 to 1.7325e-006
Heightened Def Con from 1.7325e-006 to 1.7325e-006
Heightened Def Con from 1.7325e-006 to 1.7325e-006
Heightened Def Con from 1.7325e-006 to 1.7325e-006
Heightened Def Con from 1.7325e-006 to 1.7325e-006
Heightened Def Con from 1.7325e-006 to 1.7325e-006
Heightened Def Con from 1.7325e-006 to 1.7325e-006
Heightened Def Con from 1.7325e-006 to 1.7325e-006
Heightened Def Con from 1.7325e-006 to 1.7325e-006
Heightened Def Con from 1.7325e-006 to 1.7325e-006
Heightened Def Con from 1.7325e-006 to 1.7325e-006
Heightened Def Con from 1.7325e-006 to 1.7325e-006
Heightened Def Con from 1.7325e-006 to 1.7325e-006
Heightened Def Con from 1.7325e-006 to 1.7325e-006
Heightened Def Con from 1.7325e-006 to 1.7325e-006
Heightened Def Con from 1.7325e-006 to 1.7325e-006
Heightened Def Con from 1.7325e-006 to 1.7325e-006
Heightened Def Con from 1.7325e-006 to 1.73251e-006
Heightened Def Con from 1.73251e-006 to 1.73251e-006
Heightened Def Con from 1.73251e-006 to 1.73251e-006
Heightened Def Con from 1.73251e-006 to 1.73251e-006
Heightened Def Con from 1.73251e-006 to 1.73251e-006
Heightened Def Con from 1.73251e-006 to 1.73251e-006
Heightened Def Con from 1.73251e-006 to 1.73251e-006
Heightened Def Con from 1.73251e-006 to 1.73251e-006
Heightened Def Con from 1.73251e-006 to 1.73251e-006
Heightened Def Con from 1.73251e-006 to 1.73251e-006
Heightened Def Con from 1.73251e-006 to 1.73251e-006
Heightened Def Con from 1.73251e-006 to 1.73251e-006
Heightened Def Con from 1.73251e-006 to 1.73251e-006
Heightened Def Con from 1.73251e-006 to 1.73251e-006
Heightened Def Con from 1.73251e-006 to 1.73251e-006
Heightened Def Con from 1.73251e-006 to 1.73251e-006
Heightened Def Con from 1.73251e-006 to 1.73251e-006
Heightened Def Con from 1.73251e-006 to 1.73251e-006
Heightened Def Con from 1.73251e-006 to 1.73251e-006
Heightened Def Con from 1.73251e-006 to 1.73251e-006
Heightened Def Con from 1.73251e-006 to 1.73251e-006
Heightened Def Con from 1.73251e-006 to 1.73251e-006
Heightened Def Con from 1.73251e-006 to 1.73251e-006
Heightened Def Con from 1.73251e-006 to 1.73251e-006
Heightened Def Con from 1.73251e-006 to 1.73251e-006
Heightened Def Con from 1.73251e-006 to 1.73251e-006
Heightened Def Con from 1.73251e-006 to 1.73251e-006
Heightened Def Con from 1.73251e-006 to 1.73251e-006
Heightened Def Con from 1.73251e-006 to 1.73251e-006
Heightened Def Con from 1.73251e-006 to 1.73251e-006
Heightened Def Con from 1.73251e-006 to 1.73251e-006
Heightened Def Con from 1.73251e-006 to 1.73251e-006
Heightened Def Con from 1.73251e-006 to 1.73251e-006
Heightened Def Con from 1.73251e-006 to 1.73251e-006
Heightened Def Con from 1.73251e-006 to 1.73251e-006
Heightened Def Con from 1.73251e-006 to 1.73251e-006
Heightened Def Con from 1.73251e-006 to 1.73251e-006
Heightened Def Con from 1.73251e-006 to 1.73251e-006
Heightened Def Con from 1.73251e-006 to 1.73251e-006
Heightened Def Con from 1.73251e-006 to 1.73251e-006
Heightened Def Con from 1.73251e-006 to 1.73251e-006
Heightened Def Con from 1.73251e-006 to 1.73251e-006
Heightened Def Con from 1.73251e-006 to 1.73251e-006
Heightened Def Con from 1.73251e-006 to 1.73251e-006
Heightened Def Con from 1.73251e-006 to 1.73251e-006
Heightened Def Con from 1.73251e-006 +to 1.73251e-006
Heightened Def Con from 1.73251e-006 to 1.73251e-006
Heightened Def Con from 1.73251e-006 to 1.73251e-006
Heightened Def Con from 1.73251e-006 to 1.73251e-006
Heightened Def Con from 1.73251e-006 to 1.73251e-006
Heightened Def Con from 1.73251e-006 to 1.73251e-006
Heightened Def Con from 1.73251e-006 to 1.73251e-006
Heightened Def Con from 1.73251e-006 to 1.73251e-006
Heightened Def Con from 1.73251e-006 to 1.73251e-006
Heightened Def Con from 1.73251e-006 to 1.73251e-006
Heightened Def Con from 1.73252e-006 to 1.73252e-006
Heightened Def Con from 1.73252e-006 to 1.73252e-006
Heightened Def Con from 1.73252e-006 to 1.73252e-006
Heightened Def Con from 1.73252e-006 to 1.73252e-006
Heightened Def Con from 1.73252e-006 to 1.73252e-006
Heightened Def Con from 1.73252e-006 to 1.73252e-006
Heightened Def Con from 1.73252e-006 to 1.73252e-006
Heightened Def Con from 1.73252e-006 to 1.73252e-006
Heightened Def Con from 1.73252e-006 to 1.73252e-006
Heightened Def Con from 1.73252e-006 to 1.73352e-006
Heightened Def Con from 1.73352e-006 to 1.73352e-006
Heightened Def Con from 1.73352e-006 to 1.73352e-006
Heightened Def Con from 1.73352e-006 to 1.73352e-006
Heightened Def Con from 1.73352e-006 to 1.73352e-006
Heightened Def Con from 1.73352e-006 to 1.73352e-006
Heightened Def Con from 1.73352e-006 to 1.73352e-006
Heightened Def Con from 1.73352e-006 to 1.73352e-006
Heightened Def Con from 1.73352e-006 to 1.73352e-006
Heightened Def Con from 1.73352e-006 to 1.73352e-006
Heightened Def Con from 1.73352e-006 to 1.73352e-006
Heightened Def Con from 1.73352e-006 to 1.73352e-006
Heightened Def Con from 1.73352e-006 to 1.73352e-006
Heightened Def Con from 1.73352e-006 to 1.73352e-006
Heightened Def Con from 1.73352e-006 to 1.73352e-006
Heightened Def Con from 1.73352e-006 to 1.73352e-006
Heightened Def Con from 1.73352e-006 to 1.73352e-006
Heightened Def Con from 1.73352e-006 to 1.73352e-006
Heightened Def Con from 1.73352e-006 to 1.73352e-006
Heightened Def Con from 1.73352e-006 to 1.73352e-006
Heightened Def Con from 1.73352e-006 to 1.73352e-006
Heightened Def Con from 1.73352e-006 to 1.73352e-006
Heightened Def Con from 1.73352e-006 to 1.73352e-006
Heightened Def Con from 1.73352e-006 to 1.73352e-006
Heightened Def Con from 1.73352e-006 to 1.73352e-006
Heightened Def Con from 1.73352e-006 to 1.73352e-006
Heightened Def Con from 1.73352e-006 to 1.73352e-006
Heightened Def Con from 1.73352e-006 to 1.73352e-006
Heightened Def Con from 1.73352e-006 to 1.73352e-006
Heightened Def Con from 1.73352e-006 to 1.73352e-006
Heightened Def Con from 1.73352e-006 to 1.73352e-006
Heightened Def Con from 1.73352e-006 to 1.73352e-006
Heightened Def Con from 1.73352e-006 to 1.73352e-006
Heightened Def Con from 1.73352e-006 to 1.73352e-006
Heightened Def Con from 1.73352e-006 to 1.73352e-006
Heightened Def Con from 1.73352e-006 to 1.73352e-006
Heightened Def Con from 1.73352e-006 to 1.73352e-006
Heightened Def Con from 1.73352e-006 to 1.73352e-006
Heightened Def Con from 1.73352e-006 to 1.73452e-006
Heightened Def Con from 1.73452e-006 to 1.73452e-006
Heightened Def Con from 1.73452e-006 to 1.73452e-006
Heightened Def Con from 1.73452e-006 to 1.73452e-006
Heightened Def Con from 1.73453e-006 to 1.73453e-006
Heightened Def Con from 1.73453e-006 to 1.73453e-006
Heightened Def Con from 1.73453e-006 to 1.73453e-006
Heightened Def Con from 1.73453e-006 to 1.73453e-006
Heightened Def Con from 1.73453e-006 to 1.73453e-006
Heightened Def Con from 1.73453e-006 to 1.73453e-006
Heightened Def Con from 1.73453e-006 to 1.73453e-006
Heightened Def Con from 1.73453e-006 to 1.73453e-006
Heightened Def Con from 1.73453e-006 to 1.73453e-006
Heightened Def Con from 1.73453e-006 to 1.73453e-006
Heightened Def Con from 1.73453e-006 to 1.73453e-006
Heightened Def Con from 1.73453e-006 to 1.73453e-006
Heightened Def Con from 1.73453e-006 to 1.73453e-006
Heightened Def Con from 1.73453e-006 to 1.73453e-006
Heightened Def Con from 1.73453e-006 to 1.73453e-006
Heightened Def Con from 1.73453e-006 to 1.73453e-006
Heightened Def Con from 1.73453e-006 to 1.73453e-006
Heightened Def Con from 1.73453e-006 to 1.73453e-006
Heightened Def Con from 1.73453e-006 to 1.73453e-006
Heightened Def Con from 1.73453e-006 to 1.73453e-006
Heightened Def Con from 1.73453e-006 to 1.73453e-006
Heightened Def Con from 1.73453e-006 to 1.73453e-006
Heightened Def Con from 1.73453e-006 to 1.73453e-006
Heightened Def Con from 1.73453e-006 to 1.73453e-006
Heightened Def Con from 1.73453e-006 to 1.73453e-006
Heightened Def Con from 1.73453e-006 to 1.73453e-006
Heightened Def Con from 1.73453e-006 to 1.73453e-006
Heightened Def Con from 1.73453e-006 to 1.73453e-006
Heightened Def Con from 1.73453e-006 to 1.73453e-006
Heightened Def Con from 1.73453e-006 to 1.73453e-006
Heightened Def Con from 1.73453e-006 to 1.73453e-006
Heightened Def Con from 1.73453e-006 +to 1.73453e-006
Heightened Def Con from 1.73453e-006 to 1.73453e-006
Heightened Def Con from 1.73454e-006 to 1.73454e-006
Heightened Def Con from 1.73454e-006 to 1.73454e-006
Heightened Def Con from 1.73454e-006 to 1.73454e-006
Heightened Def Con from 1.73454e-006 to 1.73454e-006
Heightened Def Con from 1.73454e-006 to 1.73454e-006
Heightened Def Con from 1.73454e-006 to 1.73454e-006
Heightened Def Con from 1.73454e-006 to 1.73454e-006
Heightened Def Con from 1.73454e-006 to 1.73454e-006
Heightened Def Con from 1.73454e-006 to 1.73454e-006
Heightened Def Con from 1.73454e-006 to 1.73454e-006
Heightened Def Con from 1.73454e-006 to 1.73454e-006
Heightened Def Con from 1.73454e-006 to 1.73454e-006
Heightened Def Con from 1.73454e-006 to 1.73454e-006
Heightened Def Con from 1.73454e-006 to 1.73454e-006
Heightened Def Con from 1.73454e-006 to 1.73454e-006
Heightened Def Con from 1.73454e-006 to 1.73454e-006
Heightened Def Con from 1.73454e-006 to 1.73454e-006
Heightened Def Con from 1.73454e-006 to 1.73454e-006
Heightened Def Con from 1.73454e-006 to 1.73454e-006
Heightened Def Con from 1.73454e-006 to 1.73454e-006
Heightened Def Con from 1.73454e-006 to 1.73454e-006
Heightened Def Con from 1.73454e-006 to 1.73454e-006
Heightened Def Con from 1.73454e-006 to 1.73454e-006
Heightened Def Con from 1.73454e-006 to 1.73454e-006
Heightened Def Con from 1.73454e-006 to 1.73454e-006
Heightened Def Con from 1.73454e-006 to 1.73454e-006
Heightened Def Con from 1.73454e-006 to 1.73454e-006
Heightened Def Con from 1.73454e-006 to 1.73454e-006
Heightened Def Con from 1.73454e-006 to 1.73454e-006
Heightened Def Con from 1.73454e-006 to 1.73454e-006
Heightened Def Con from 1.73454e-006 to 1.73454e-006
Heightened Def Con from 1.73454e-006 to 1.73454e-006
Heightened Def Con from 1.73454e-006 to 1.73454e-006
Heightened Def Con from 1.73454e-006 to 1.73454e-006
Heightened Def Con from 1.73454e-006 to 1.73454e-006
Heightened Def Con from 1.73454e-006 to 1.73454e-006
Heightened Def Con from 1.73454e-006 to 1.73454e-006
Heightened Def Con from 1.73454e-006 to 1.73454e-006
Heightened Def Con from 1.73454e-006 to 1.73454e-006
Heightened Def Con from 1.73454e-006 to 1.73454e-006
Heightened Def Con from 1.73454e-006 to 1.73454e-006
Heightened Def Con from 1.73454e-006 to 1.73454e-006
Heightened Def Con from 1.73454e-006 to 1.73454e-006
Heightened Def Con from 1.73454e-006 to 1.73454e-006
Heightened Def Con from 1.73454e-006 to 1.73454e-006
Heightened Def Con from 1.73454e-006 to 1.73454e-006
Heightened Def Con from 1.73454e-006 to 1.73454e-006
Heightened Def Con from 1.73454e-006 to 1.73454e-006
Heightened Def Con from 1.73454e-006 to 1.73454e-006
Heightened Def Con from 1.73454e-006 to 1.73454e-006
Heightened Def Con from 1.73454e-006 to 1.73454e-006
Heightened Def Con from 1.73454e-006 to 1.73454e-006
Heightened Def Con from 1.73454e-006 to 1.73454e-006
Heightened Def Con from 1.73454e-006 to 1.73454e-006
Heightened Def Con from 1.73454e-006 to 1.73454e-006
Heightened Def Con from 1.73454e-006 to 1.73454e-006
Heightened Def Con from 1.73454e-006 to 1.73454e-006
Heightened Def Con from 1.73454e-006 to 1.73454e-006
Heightened Def Con from 1.73454e-006 to 1.73454e-006
Heightened Def Con from 1.73454e-006 to 1.73454e-006
Heightened Def Con from 1.73454e-006 to 1.73454e-006
Heightened Def Con from 1.73454e-006 to 1.73454e-006
Heightened Def Con from 1.73454e-006 to 1.73454e-006
Heightened Def Con from 1.73454e-006 to 1.73454e-006
Heightened Def Con from 1.73454e-006 to 1.73454e-006
Heightened Def Con from 1.73454e-006 to 1.73454e-006
Heightened Def Con from 1.73454e-006 to 1.73454e-006
Heightened Def Con from 1.73454e-006 to 1.73454e-006
Heightened Def Con from 1.73454e-006 to 1.73454e-006
Heightened Def Con from 1.73454e-006 to 1.73454e-006
Heightened Def Con from 1.73454e-006 to 1.73454e-006
Heightened Def Con from 1.73454e-006 to 1.73454e-006
Heightened Def Con from 1.73454e-006 to 1.73454e-006
Heightened Def Con from 1.73454e-006 to 1.73454e-006
Heightened Def Con from 1.73454e-006 to 1.73454e-006
Heightened Def Con from 1.73454e-006 to 1.73454e-006
Heightened Def Con from 1.73455e-006 to 1.73455e-006
Heightened Def Con from 1.73455e-006 to 1.73455e-006
Heightened Def Con from 1.73455e-006 to 1.73455e-006
Heightened Def Con from 1.73455e-006 to 1.73455e-006
Heightened Def Con from 1.73455e-006 to 1.73455e-006
Heightened Def Con from 1.73455e-006 to 1.73455e-006
Heightened Def Con from 1.73455e-006 to 1.73455e-006
Heightened Def Con from 1.73455e-006 to 1.73455e-006
Heightened Def Con from 1.73455e-006 to 1.73455e-006
Heightened Def Con from 1.73455e-006 to 1.73455e-006
Heightened Def Con from 1.73455e-006 to 1.73455e-006
Heightened Def Con from 1.73455e-006 to 1.73455e-006
Heightened Def Con from 1.73455e-006 to 1.73455e-006
Heightened Def Con from 1.73455e-006 to 1.73455e-006
Heightened Def Con from 1.73455e-006 to 1.73455e-006
Heightened Def Con from 1.73455e-006 to 1.73455e-006
Heightened Def Con from 1.73455e-006 to 1.73455e-006
Heightened Def Con from 1.73455e-006 to 1.73455e-006
Heightened Def Con from 1.73455e-006 to 1.73455e-006
Heightened Def Con from 1.73455e-006 to 1.73455e-006
Heightened Def Con from 1.73455e-006 to 1.73455e-006
Heightened Def Con from 1.73455e-006 to 1.73455e-006
Heightened Def Con from 1.73455e-006 to 1.73455e-006
Heightened Def Con from 1.73455e-006 to 1.73455e-006
Heightened Def Con from 1.73455e-006 to 1.73455e-006
Heightened Def Con from 1.73455e-006 to 1.73455e-006
Heightened Def Con from 1.73455e-006 to 1.73455e-006
Heightened Def Con from 1.73455e-006 to 1.73455e-006
Heightened Def Con from 1.73455e-006 to 1.73455e-006
Heightened Def Con from 1.73455e-006 to 1.73455e-006
Heightened Def Con from 1.73455e-006 to 1.73455e-006
Heightened Def Con from 1.73455e-006 to 1.73455e-006
Heightened Def Con from 1.73455e-006 to 1.73455e-006
Heightened Def Con from 1.73455e-006 to 1.73455e-006
Heightened Def Con from 1.73455e-006 to 1.73455e-006
Heightened Def Con from 1.73455e-006 to 1.73455e-006
Heightened Def Con from 1.73455e-006 to 1.73455e-006
Heightened Def Con from 1.73455e-006 to 1.73455e-006
Heightened Def Con from 1.73455e-006 to 1.73455e-006
Heightened Def Con from 1.73455e-006 to 1.73455e-006
Heightened Def Con from 1.73455e-006 to 1.73455e-006
Heightened Def Con from 1.73455e-006 to 1.73455e-006
Heightened Def Con from 1.73455e-006 to 1.73455e-006
Heightened Def Con from 1.73455e-006 to 1.73455e-006
Heightened Def Con from 1.73455e-006 to 1.73455e-006
Heightened Def Con from 1.73455e-006 to 1.73455e-006
Heightened Def Con from 1.73455e-006 to 1.73455e-006
Heightened Def Con from 1.73455e-006 to 1.73455e-006
Heightened Def Con from 1.73455e-006 to 1.73455e-006
Heightened Def Con from 1.73455e-006 to 1.73455e-006
Heightened Def Con from 1.73455e-006 to 1.73455e-006
Heightened Def Con from 1.73455e-006 to 1.73455e-006
Heightened Def Con from 1.73455e-006 to 1.73455e-006
Heightened Def Con from 1.73455e-006 to 1.73455e-006
Heightened Def Con from 1.73455e-006 to 1.73455e-006
Heightened Def Con from 1.73455e-006 to 1.73455e-006
Heightened Def Con from 1.73455e-006 +to 1.73455e-006
Heightened Def Con from 1.73455e-006 to 1.73455e-006
Heightened Def Con from 1.73455e-006 to 1.73455e-006
Heightened Def Con from 1.73455e-006 to 1.73455e-006
Heightened Def Con from 1.73455e-006 to 1.73455e-006
Heightened Def Con from 1.73455e-006 to 1.73455e-006
Heightened Def Con from 1.73455e-006 to 1.73455e-006
Heightened Def Con from 1.73455e-006 to 1.73455e-006
Heightened Def Con from 1.73455e-006 to 1.73455e-006
Heightened Def Con from 1.73455e-006 to 1.73455e-006
Heightened Def Con from 1.73455e-006 to 1.73455e-006
Heightened Def Con from 1.73455e-006 to 1.73455e-006
Heightened Def Con from 1.73455e-006 to 1.73455e-006
Heightened Def Con from 1.73455e-006 to 1.73456e-006
Heightened Def Con from 1.73456e-006 to 1.73456e-006
Heightened Def Con from 1.73456e-006 to 1.73456e-006
Heightened Def Con from 1.73456e-006 to 1.73456e-006
Heightened Def Con from 1.73456e-006 to 1.73456e-006
Heightened Def Con from 1.73456e-006 to 1.73456e-006
Heightened Def Con from 1.73456e-006 to 1.73456e-006
Heightened Def Con from 1.73456e-006 to 1.73456e-006
Heightened Def Con from 1.73456e-006 to 1.73456e-006
Heightened Def Con from 1.73456e-006 to 1.73456e-006
Heightened Def Con from 1.73456e-006 to 1.73456e-006
Heightened Def Con from 1.73456e-006 to 1.73456e-006
Heightened Def Con from 1.73456e-006 to 1.73456e-006
Heightened Def Con from 1.73456e-006 to 1.73456e-006
Heightened Def Con from 1.73456e-006 to 1.73456e-006
Heightened Def Con from 1.73456e-006 to 1.73456e-006
Heightened Def Con from 1.73456e-006 to 1.73456e-006
Heightened Def Con from 1.73456e-006 to 1.73456e-006
Heightened Def Con from 1.73456e-006 to 1.73456e-006
Heightened Def Con from 1.73456e-006 to 1.73456e-006
Heightened Def Con from 1.73456e-006 to 1.73456e-006
Heightened Def Con from 1.73456e-006 to 1.73456e-006
Heightened Def Con from 1.73456e-006 to 1.73456e-006
Heightened Def Con from 1.73456e-006 to 1.73456e-006
Heightened Def Con from 1.73456e-006 to 1.73456e-006
Heightened Def Con from 1.73456e-006 to 1.73456e-006
Heightened Def Con from 1.73456e-006 to 1.73456e-006
Heightened Def Con from 1.73456e-006 to 1.73456e-006
Heightened Def Con from 1.73456e-006 to 1.73456e-006
Heightened Def Con from 1.73456e-006 to 1.73456e-006
Heightened Def Con from 1.73457e-006 to 1.73457e-006
Heightened Def Con from 1.73457e-006 to 1.73457e-006
Heightened Def Con from 1.73457e-006 to 1.73457e-006
Heightened Def Con from 1.73457e-006 to 1.73457e-006
Heightened Def Con from 1.73457e-006 to 1.73457e-006
Heightened Def Con from 1.73457e-006 to 1.73457e-006
Heightened Def Con from 1.73457e-006 to 1.73457e-006
Heightened Def Con from 1.73457e-006 to 1.73457e-006
Heightened Def Con from 1.73457e-006 to 1.73457e-006
Heightened Def Con from 1.73457e-006 to 1.73457e-006
Heightened Def Con from 1.73457e-006 to 1.73457e-006
Heightened Def Con from 1.73457e-006 to 1.73457e-006
Heightened Def Con from 1.73457e-006 to 1.73457e-006
Heightened Def Con from 1.73457e-006 to 1.73457e-006
Heightened Def Con from 1.73457e-006 to 1.73457e-006
Heightened Def Con from 1.73457e-006 to 1.73457e-006
Heightened Def Con from 1.73457e-006 to 1.73457e-006
Heightened Def Con from 1.73457e-006 to 1.73457e-006
Heightened Def Con from 1.73457e-006 to 1.73457e-006
Heightened Def Con from 1.73457e-006 to 1.73457e-006
Heightened Def Con from 1.73457e-006 to 1.73457e-006
Heightened Def Con from 1.73457e-006 to 1.7347e-006
Heightened Def Con from 1.7347e-006 to 1.7347e-006
Heightened Def Con from 1.7347e-006 to 1.7347e-006
Heightened Def Con from 1.7347e-006 to 1.7347e-006
Heightened Def Con from 1.7347e-006 to 1.7347e-006
Heightened Def Con from 1.7347e-006 to 1.7347e-006
Heightened Def Con from 1.7347e-006 to 1.7347e-006
Heightened Def Con from 1.7347e-006 to 1.7347e-006
Heightened Def Con from 1.7347e-006 to 1.7347e-006
Heightened Def Con from 1.7347e-006 to 1.7347e-006
Heightened Def Con from 1.7347e-006 to 1.7347e-006
Heightened Def Con from 1.7347e-006 to 1.7347e-006
Heightened Def Con from 1.7347e-006 to 1.7347e-006
Heightened Def Con from 1.7347e-006 to 1.7347e-006
Heightened Def Con from 1.7347e-006 to 1.7347e-006
Heightened Def Con from 1.7347e-006 to 1.7347e-006
Heightened Def Con from 1.7347e-006 to 1.7347e-006
Heightened Def Con from 1.7347e-006 to 1.7347e-006
Heightened Def Con from 1.7347e-006 to 1.7347e-006
Heightened Def Con from 1.7347e-006 to 1.7347e-006
Heightened Def Con from 1.7347e-006 to 1.7347e-006
Heightened Def Con from 1.7347e-006 to 1.7347e-006
Heightened Def Con from 1.7347e-006 to 1.7347e-006
Heightened Def Con from 1.7347e-006 to 1.7347e-006
Heightened Def Con from 1.7347e-006 to 1.7347e-006
Heightened Def Con from 1.7347e-006 to 1.7347e-006
Heightened Def Con from 1.7347e-006 +to 1.7347e-006
Heightened Def Con from 1.7347e-006 to 1.7347e-006
Heightened Def Con from 1.7347e-006 to 1.7347e-006
Heightened Def Con from 1.7347e-006 to 1.7347e-006
Heightened Def Con from 1.7347e-006 to 1.7347e-006
Heightened Def Con from 1.7347e-006 to 1.7347e-006
Heightened Def Con from 1.7347e-006 to 1.7347e-006
Heightened Def Con from 1.7347e-006 to 1.7347e-006
Heightened Def Con from 1.73471e-006 to 1.73471e-006
Heightened Def Con from 1.73471e-006 to 1.73471e-006
Heightened Def Con from 1.73471e-006 to 1.73471e-006
Heightened Def Con from 1.73471e-006 to 1.73471e-006
Heightened Def Con from 1.73471e-006 to 1.73471e-006
Heightened Def Con from 1.73471e-006 to 1.73471e-006
Heightened Def Con from 1.73471e-006 to 1.73471e-006
Heightened Def Con from 1.73471e-006 to 1.73471e-006
Heightened Def Con from 1.73471e-006 to 1.73471e-006
Heightened Def Con from 1.73471e-006 to 1.73471e-006
Heightened Def Con from 1.73471e-006 to 1.73471e-006
Heightened Def Con from 1.73471e-006 to 1.73471e-006
Heightened Def Con from 1.73471e-006 to 1.73471e-006
Heightened Def Con from 1.73471e-006 to 1.73471e-006
Heightened Def Con from 1.73471e-006 to 1.73471e-006
Heightened Def Con from 1.73471e-006 to 1.73471e-006
Heightened Def Con from 1.73471e-006 to 1.73471e-006
Heightened Def Con from 1.73471e-006 to 1.73471e-006
Heightened Def Con from 1.73471e-006 to 1.73471e-006
Heightened Def Con from 1.73471e-006 to 1.73471e-006
Heightened Def Con from 1.73471e-006 to 1.73471e-006
Heightened Def Con from 1.73471e-006 to 1.73471e-006
Heightened Def Con from 1.73471e-006 to 1.73471e-006
Heightened Def Con from 1.73471e-006 to 1.73471e-006
Heightened Def Con from 1.73471e-006 to 1.73471e-006
Heightened Def Con from 1.73471e-006 to 1.73471e-006
Heightened Def Con from 1.73471e-006 to 1.73471e-006
Heightened Def Con from 1.73471e-006 to 1.73471e-006
Heightened Def Con from 1.73471e-006 to 1.73471e-006
Heightened Def Con from 1.73471e-006 to 1.73471e-006
Heightened Def Con from 1.73471e-006 to 1.73471e-006
Heightened Def Con from 1.73471e-006 to 1.73471e-006
Heightened Def Con from 1.73471e-006 to 1.73471e-006
Heightened Def Con from 1.73471e-006 to 1.73471e-006
Heightened Def Con from 1.73471e-006 to 1.73471e-006
Heightened Def Con from 1.73471e-006 to 1.73471e-006
Heightened Def Con from 1.73471e-006 to 1.73471e-006
Heightened Def Con from 1.73471e-006 to 1.73471e-006
Heightened Def Con from 1.73471e-006 to 1.73471e-006
Heightened Def Con from 1.73471e-006 to 1.73471e-006
Heightened Def Con from 1.73471e-006 to 1.73471e-006
Heightened Def Con from 1.73471e-006 to 1.73471e-006
Heightened Def Con from 1.73471e-006 to 1.73471e-006
Heightened Def Con from 1.73471e-006 to 1.73471e-006
Heightened Def Con from 1.73471e-006 to 1.73471e-006
Heightened Def Con from 1.73471e-006 to 1.73471e-006
Heightened Def Con from 1.73471e-006 to 1.73471e-006
Heightened Def Con from 1.73471e-006 to 1.73471e-006
Heightened Def Con from 1.73471e-006 to 1.73471e-006
Heightened Def Con from 1.73471e-006 to 1.73471e-006
Heightened Def Con from 1.73471e-006 to 1.73471e-006
Heightened Def Con from 1.73471e-006 to 1.73471e-006
Heightened Def Con from 1.73471e-006 to 1.73471e-006
Heightened Def Con from 1.73471e-006 to 1.73471e-006
Heightened Def Con from 1.73471e-006 to 1.73471e-006
Heightened Def Con from 1.73471e-006 to 1.73471e-006
Heightened Def Con from 1.73471e-006 to 1.73471e-006
Heightened Def Con from 1.73471e-006 to 1.73471e-006
Heightened Def Con from 1.73471e-006 to 1.73471e-006
Heightened Def Con from 1.73471e-006 to 1.73471e-006
Heightened Def Con from 1.73471e-006 to 1.73471e-006
Heightened Def Con from 1.73471e-006 to 1.73471e-006
Heightened Def Con from 1.73471e-006 to 1.73471e-006
Heightened Def Con from 1.73471e-006 to 1.73471e-006
Heightened Def Con from 1.73472e-006 to 1.73472e-006
Heightened Def Con from 1.73472e-006 to 1.73472e-006
Heightened Def Con from 1.73472e-006 to 1.73472e-006
Heightened Def Con from 1.73472e-006 to 1.73472e-006
Heightened Def Con from 1.73472e-006 to 1.73472e-006
Heightened Def Con from 1.73472e-006 to 1.73472e-006
Heightened Def Con from 1.73472e-006 to 1.73472e-006
Heightened Def Con from 1.73472e-006 to 1.73472e-006
Heightened Def Con from 1.73472e-006 to 1.73472e-006
Heightened Def Con from 1.73472e-006 to 1.73472e-006
Heightened Def Con from 1.73472e-006 to 1.73472e-006
Heightened Def Con from 1.73472e-006 to 1.73472e-006
Heightened Def Con from 1.73472e-006 to 1.73472e-006
Heightened Def Con from 1.73472e-006 to 1.73472e-006
Heightened Def Con from 1.73472e-006 +to 1.73472e-006
Heightened Def Con from 1.73472e-006 to 1.73472e-006
Heightened Def Con from 1.73472e-006 to 1.73472e-006
Heightened Def Con from 1.73472e-006 to 1.73472e-006
Heightened Def Con from 1.73472e-006 to 1.73472e-006
Heightened Def Con from 1.73472e-006 to 1.73472e-006
Heightened Def Con from 1.73472e-006 to 1.73472e-006
Heightened Def Con from 1.73472e-006 to 1.73472e-006
Heightened Def Con from 1.73472e-006 to 1.73472e-006
Heightened Def Con from 1.73472e-006 +to 1.73472e-006
Heightened Def Con from 1.73472e-006 to 1.73472e-006
Heightened Def Con from 1.73472e-006 to 1.73472e-006
Heightened Def Con from 1.73472e-006 to 1.73472e-006
Heightened Def Con from 1.73472e-006 +to 1.73572e-006
Heightened Def Con from 1.73572e-006 to 1.73572e-006
Heightened Def Con from 1.73572e-006 to 1.73572e-006
Heightened Def Con from 1.73572e-006 to 1.73572e-006
Heightened Def Con from 1.73572e-006 to 1.73572e-006
Heightened Def Con from 1.73572e-006 to 1.73572e-006
Heightened Def Con from 1.73572e-006 to 1.73572e-006
Heightened Def Con from 1.73572e-006 to 1.73572e-006
Heightened Def Con from 1.73572e-006 to 1.73572e-006
Heightened Def Con from 1.73572e-006 to 1.73572e-006
Heightened Def Con from 1.73572e-006 to 1.73572e-006
Heightened Def Con from 1.73572e-006 to 1.73572e-006
Heightened Def Con from 1.73572e-006 to 1.73572e-006
Heightened Def Con from 1.73572e-006 to 1.73572e-006
Heightened Def Con from 1.73572e-006 to 1.73572e-006
Heightened Def Con from 1.73572e-006 to 1.73572e-006
Heightened Def Con from 1.73572e-006 to 1.73572e-006
Heightened Def Con from 1.73572e-006 to 1.73572e-006
Heightened Def Con from 1.73572e-006 to 1.73572e-006
Heightened Def Con from 1.73572e-006 to 1.73572e-006
Heightened Def Con from 1.73572e-006 to 1.73572e-006
Heightened Def Con from 1.73572e-006 to 1.73573e-006
Heightened Def Con from 1.73573e-006 to 1.73573e-006
Heightened Def Con from 1.73573e-006 to 1.73573e-006
Heightened Def Con from 1.73573e-006 to 1.73573e-006
Heightened Def Con from 1.73573e-006 +to 1.73573e-006
Heightened Def Con from 1.73573e-006 to 1.73573e-006
Heightened Def Con from 1.73573e-006 to 1.73573e-006
Heightened Def Con from 1.73573e-006 to 1.73573e-006
Heightened Def Con from 1.73573e-006 to 1.73573e-006
Heightened Def Con from 1.73573e-006 to 1.73573e-006
Heightened Def Con from 1.73573e-006 to 1.73573e-006
Heightened Def Con from 1.73574e-006 to 1.73574e-006
Heightened Def Con from 1.73574e-006 to 1.73574e-006
Heightened Def Con from 1.73574e-006 to 1.73574e-006
Heightened Def Con from 1.73574e-006 to 1.73574e-006
Heightened Def Con from 1.73574e-006 to 1.73574e-006
Heightened Def Con from 1.73574e-006 to 1.73574e-006
Heightened Def Con from 1.73574e-006 to 1.73574e-006
Heightened Def Con from 1.73574e-006 to 1.73574e-006
Heightened Def Con from 1.73574e-006 to 1.73574e-006
Heightened Def Con from 1.73574e-006 to 1.73574e-006
Heightened Def Con from 1.73574e-006 to 1.73574e-006
Heightened Def Con from 1.73574e-006 to 1.73574e-006
Heightened Def Con from 1.73574e-006 to 1.73574e-006
Heightened Def Con from 1.73574e-006 to 1.73574e-006
Heightened Def Con from 1.73574e-006 to 1.73574e-006
Heightened Def Con from 1.73574e-006 to 1.73574e-006
Heightened Def Con from 1.73574e-006 to 1.73574e-006
Heightened Def Con from 1.73575e-006 to 1.73575e-006
Heightened Def Con from 1.73575e-006 to 1.73575e-006
Heightened Def Con from 1.73575e-006 to 1.73575e-006
Heightened Def Con from 1.73575e-006 to 1.73575e-006
Heightened Def Con from 1.73575e-006 to 1.73575e-006
Heightened Def Con from 1.73575e-006 to 1.73575e-006
Heightened Def Con from 1.73575e-006 to 1.73575e-006
Heightened Def Con from 1.73575e-006 to 1.73575e-006
Heightened Def Con from 1.73575e-006 to 1.73575e-006
Heightened Def Con from 1.73575e-006 to 1.73575e-006
Heightened Def Con from 1.73575e-006 to 1.73575e-006
Heightened Def Con from 1.73575e-006 to 1.73575e-006
Heightened Def Con from 1.73575e-006 to 1.73575e-006
Heightened Def Con from 1.73575e-006 to 1.73575e-006
Heightened Def Con from 1.73575e-006 to 1.73575e-006
Heightened Def Con from 1.73575e-006 to 1.73575e-006
Heightened Def Con from 1.73575e-006 to 1.73575e-006
Heightened Def Con from 1.73575e-006 to 1.73575e-006
Heightened Def Con from 1.73575e-006 to 1.73575e-006
Heightened Def Con from 1.73575e-006 to 1.73575e-006
Heightened Def Con from 1.73575e-006 to 1.73575e-006
Heightened Def Con from 1.73575e-006 to 1.73575e-006
Heightened Def Con from 1.73575e-006 to 1.73575e-006
Heightened Def Con from 1.73575e-006 to 1.73575e-006
Heightened Def Con from 1.73575e-006 to 1.73575e-006
Heightened Def Con from 1.73575e-006 to 1.73575e-006
Heightened Def Con from 1.73575e-006 to 1.73575e-006
Heightened Def Con from 1.73575e-006 to 1.73575e-006
Heightened Def Con from 1.73575e-006 to 1.73575e-006
Heightened Def Con from 1.73575e-006 +to 1.73575e-006
Heightened Def Con from 1.73575e-006 to 1.73575e-006
Heightened Def Con from 1.73575e-006 to 1.73575e-006
Heightened Def Con from 1.73575e-006 to 1.73575e-006
Heightened Def Con from 1.73575e-006 to 1.73575e-006
Heightened Def Con from 1.73575e-006 to 1.73575e-006
Heightened Def Con from 1.73575e-006 to 1.73575e-006
Heightened Def Con from 1.73575e-006 to 1.73575e-006
Heightened Def Con from 1.73575e-006 to 1.73575e-006
Heightened Def Con from 1.73575e-006 to 1.73575e-006
Heightened Def Con from 1.73575e-006 to 1.73575e-006
Heightened Def Con from 1.73575e-006 to 1.73575e-006
Heightened Def Con from 1.73575e-006 to 1.73575e-006
Heightened Def Con from 1.73575e-006 to 1.73575e-006
Heightened Def Con from 1.73575e-006 to 1.73575e-006
Heightened Def Con from 1.73575e-006 to 1.73575e-006
Heightened Def Con from 1.73575e-006 to 1.73575e-006
Heightened Def Con from 1.73575e-006 to 1.73575e-006
Heightened Def Con from 1.73575e-006 to 1.73575e-006
Heightened Def Con from 1.73575e-006 to 1.73575e-006
Heightened Def Con from 1.73575e-006 to 1.73575e-006
[...]
Heightened Def Con from 2.91579e-006 to 2.91779e-006
Heightened Def Con from 2.918e-006 to 2.918e-006
Heightened Def Con from 2.918e-006 to 2.918e-006
Heightened Def Con from 2.918e-006 to 2.91803e-006
Heightened Def Con from 2.91803e-006 to 2.91803e-006
Heightened Def Con from 2.91803e-006 to 2.91817e-006
Heightened Def Con from 2.91817e-006 to 2.92017e-006
Heightened Def Con from 2.92038e-006 to 2.92138e-006
Heightened Def Con from 2.92138e-006 to 2.92138e-006
Heightened Def Con from 2.92138e-006 to 2.9214e-006
Heightened Def Con from 2.9214e-006 to 2.92152e-006
Heightened Def Con from 2.92152e-006 to 2.92165e-006
Heightened Def Con from 2.92165e-006 to 2.92165e-006
Heightened Def Con from 2.92165e-006 to 2.92277e-006
Heightened Def Con from 2.92277e-006 to 2.92277e-006
Heightened Def Con from 2.92277e-006 +to 2.92277e-006
Heightened Def Con from 2.92277e-006 to 2.92277e-006
Heightened Def Con from 2.92277e-006 to 2.9229e-006
Heightened Def Con from 2.9229e-006 to 2.92402e-006
Heightened Def Con from 2.92402e-006 +to 2.92404e-006
Heightened Def Con from 2.92404e-006 +to 2.92417e-006
Heightened Def Con from 2.92417e-006 to 2.92417e-006
Heightened Def Con from 2.92417e-006 +to 2.92417e-006
Heightened Def Con from 2.92417e-006 to 2.92431e-006
Heightened Def Con from 2.92431e-006 to 2.92431e-006
Heightened Def Con from 2.92432e-006 to 2.92432e-006
Heightened Def Con from 2.92432e-006 to 2.92432e-006
Heightened Def Con from 2.92432e-006 to 2.92433e-006
Heightened Def Con from 2.92433e-006 to 2.92446e-006
Heightened Def Con from 2.92446e-006 to 2.92446e-006
Heightened Def Con from 2.92446e-006 to 2.92446e-006
Heightened Def Con from 2.92446e-006 to 2.92446e-006
Heightened Def Con from 2.92452e-006 to 2.92452e-006
Heightened Def Con from 2.92452e-006 ++to 2.92465e-006
Heightened Def Con from 2.92465e-006 to 2.92465e-006
Heightened Def Con from 2.92465e-006 +to 2.92465e-006
Heightened Def Con from 2.92465e-006 to 2.92577e-006
Heightened Def Con from 2.92577e-006 to 2.92777e-006
Heightened Def Con from 2.92939e-006 to 2.93052e-006
Heightened Def Con from 2.93099e-006 to 2.93112e-006
Heightened Def Con from 2.93113e-006 to 2.93116e-006
Heightened Def Con from 2.93125e-006 to 2.93237e-006
Heightened Def Con from 2.93315e-006 to 2.9334e-006
Heightened Def Con from 2.93341e-006 to 2.93443e-006
Heightened Def Con from 2.93443e-006 to 2.93556e-006
Heightened Def Con from 2.93931e-006 to 2.93944e-006
Heightened Def Con from 2.93944e-006 to 2.93947e-006
Heightened Def Con from 2.93967e-006 to 2.94167e-006
Heightened Def Con from 2.94187e-006 to 2.94387e-006
Heightened Def Con from 2.95464e-006 to 2.95477e-006
Heightened Def Con from 2.95477e-006 to 2.95677e-006
Heightened Def Con from 2.95753e-006 to 2.95753e-006
Heightened Def Con from 2.95753e-006 to 2.95754e-006
Heightened Def Con from 2.95754e-006 to 2.95954e-006
Heightened Def Con from 2.96283e-006 to 2.96395e-006
Heightened Def Con from 2.96451e-006 to 2.96551e-006
Heightened Def Con from 2.96551e-006 to 2.96751e-006
Heightened Def Con from 3.03329e-006 to 3.03332e-006
Heightened Def Con from 3.03333e-006 to 3.03334e-006
Heightened Def Con from 3.03334e-006 to 3.03446e-006
Heightened Def Con from 3.03499e-006 to 3.03699e-006
Heightened Def Con from 3.0373e-006 to 3.03755e-006
Heightened Def Con from 3.03812e-006 to 3.03925e-006
Heightened Def Con from 3.04516e-006 to 3.04628e-006
Heightened Def Con from 3.04632e-006 to 3.04734e-006
Heightened Def Con from 3.04763e-006 to 3.04763e-006
Heightened Def Con from 3.04766e-006 to 3.04766e-006
Heightened Def Con from 3.04771e-006 to 3.04784e-006
Heightened Def Con from 3.04785e-006 to 3.04799e-006
Heightened Def Con from 3.04804e-006 to 3.04905e-006
Heightened Def Con from 3.04909e-006 to 3.05109e-006
Heightened Def Con from 3.05189e-006 to 3.05192e-006
Heightened Def Con from 3.05193e-006 to 3.05193e-006
Heightened Def Con from 3.05194e-006 to 3.05209e-006
Heightened Def Con from 3.05212e-006 to 3.05213e-006
Heightened Def Con from 3.05213e-006 to 3.05215e-006
Heightened Def Con from 3.05215e-006 to 3.05215e-006
Heightened Def Con from 3.05215e-006 to 3.05217e-006
Heightened Def Con from 3.05217e-006 +to 3.05217e-006
Heightened Def Con from 3.05217e-006 to 3.05217e-006
Heightened Def Con from 3.05217e-006 to 3.05217e-006
Heightened Def Con from 3.05217e-006 +to 3.05317e-006
Heightened Def Con from 3.05317e-006 +to 3.05318e-006
Heightened Def Con from 3.05318e-006 to 3.05318e-006
Heightened Def Con from 3.05318e-006 +to 3.05318e-006
Heightened Def Con from 3.05318e-006 to 3.05318e-006
Heightened Def Con from 3.05318e-006 to 3.05331e-006
Heightened Def Con from 3.05331e-006 +to 3.05331e-006
Heightened Def Con from 3.05331e-006 +to 3.05331e-006
Heightened Def Con from 3.05331e-006 to 3.05331e-006
Heightened Def Con from 3.05331e-006 to 3.05331e-006
Heightened Def Con from 3.05331e-006 to 3.05331e-006
Heightened Def Con from 3.05331e-006 +++to 3.05333e-006
Heightened Def Con from 3.05333e-006 to 3.05345e-006
Heightened Def Con from 3.05345e-006 +to 3.05345e-006
Heightened Def Con from 3.05345e-006 to 3.05358e-006
Heightened Def Con from 3.05358e-006 to 3.05358e-006
Heightened Def Con from 3.05358e-006 to 3.0537e-006
Heightened Def Con from 3.0537e-006 to 3.0537e-006
Heightened Def Con from 3.0537e-006 ++to 3.05372e-006
Heightened Def Con from 3.05372e-006 to 3.05386e-006
Heightened Def Con from 3.05386e-006 +to 3.05386e-006
Heightened Def Con from 3.05386e-006 ++to 3.05386e-006
Heightened Def Con from 3.05386e-006 to 3.05386e-006
Heightened Def Con from 3.05386e-006 +to 3.05386e-006
Heightened Def Con from 3.05386e-006 to 3.05488e-006
Heightened Def Con from 3.05488e-006 to 3.055e-006
Heightened Def Con from 3.055e-006 +to 3.05501e-006
Heightened Def Con from 3.05501e-006 to 3.05501e-006
Heightened Def Con from 3.05501e-006 +++to 3.05613e-006
Heightened Def Con from 3.05613e-006 to 3.05638e-006
Heightened Def Con from 3.05638e-006 to 3.05651e-006
Heightened Def Con from 3.05651e-006 to 3.05651e-006
Heightened Def Con from 3.05651e-006 to 3.05676e-006
Heightened Def Con from 3.05676e-006 to 3.05676e-006
Heightened Def Con from 3.05676e-006 to 3.05676e-006
Heightened Def Con from 3.05676e-006 to 3.0569e-006
Heightened Def Con from 3.0569e-006 +to 3.05691e-006
Heightened Def Con from 3.05691e-006 to 3.05693e-006
Heightened Def Con from 3.05693e-006 to 3.05696e-006
Heightened Def Con from 3.05696e-006 to 3.05696e-006
Heightened Def Con from 3.05696e-006 to 3.05721e-006
Heightened Def Con from 3.05721e-006 to 3.05721e-006
Heightened Def Con from 3.05721e-006 to 3.05821e-006
Heightened Def Con from 3.05821e-006 +to 3.05823e-006
Heightened Def Con from 3.05823e-006 +to 3.05835e-006
Heightened Def Con from 3.05835e-006 ++to 3.05848e-006
Heightened Def Con from 3.05874e-006 to 3.05986e-006
Heightened Def Con from 3.05986e-006 to 3.05988e-006
Heightened Def Con from 3.05988e-006 to 3.0609e-006
Heightened Def Con from 3.06093e-006 to 3.06107e-006
Heightened Def Con from 3.06107e-006 +to 3.06108e-006
Heightened Def Con from 3.06108e-006 +to 3.06121e-006
Heightened Def Con from 3.06152e-006 to 3.06152e-006
Heightened Def Con from 3.06152e-006 to 3.06165e-006
Heightened Def Con from 3.06165e-006 +to 3.06165e-006
Heightened Def Con from 3.06165e-006 +to 3.06165e-006
Heightened Def Con from 3.06165e-006 to 3.06265e-006
Heightened Def Con from 3.06265e-006 to 3.06265e-006
Heightened Def Con from 3.06265e-006 to 3.06265e-006
Heightened Def Con from 3.06265e-006 to 3.06265e-006
Heightened Def Con from 3.06265e-006 to 3.06365e-006
Heightened Def Con from 3.06365e-006 to 3.0639e-006
Heightened Def Con from 3.0639e-006 to 3.0639e-006
Heightened Def Con from 3.0639e-006 to 3.06415e-006
Heightened Def Con from 3.0644e-006 to 3.0644e-006
Heightened Def Con from 3.0644e-006 to 3.0644e-006
Heightened Def Con from 3.0644e-006 to 3.06454e-006
Heightened Def Con from 3.06454e-006 to 3.06454e-006
Heightened Def Con from 3.06454e-006 to 3.06454e-006
Heightened Def Con from 3.06454e-006 to 3.06454e-006
Heightened Def Con from 3.06454e-006 to 3.06467e-006
Heightened Def Con from 3.06467e-006 to 3.06468e-006
Heightened Def Con from 3.06468e-006 to 3.0647e-006
Heightened Def Con from 3.0647e-006 to 3.06483e-006
Heightened Def Con from 3.06483e-006 to 3.06483e-006
Heightened Def Con from 3.06483e-006 to 3.06485e-006
Heightened Def Con from 3.06485e-006 to 3.06497e-006
Heightened Def Con from 3.0652e-006 to 3.06522e-006
Heightened Def Con from 3.06522e-006 to 3.06522e-006
Heightened Def Con from 3.06522e-006 to 3.06522e-006
Heightened Def Con from 3.06522e-006 to 3.06534e-006
Heightened Def Con from 3.06534e-006 to 3.06734e-006
Heightened Def Con from 3.06735e-006 to 3.06836e-006
Heightened Def Con from 3.06836e-006 to 3.06861e-006
Heightened Def Con from 3.06861e-006 to 3.06886e-006
Heightened Def Con from 3.06896e-006 to 3.06897e-006
Heightened Def Con from 3.06897e-006 to 3.06897e-006
Heightened Def Con from 3.06897e-006 to 3.06899e-006
Heightened Def Con from 3.06899e-006 to 3.06924e-006
Heightened Def Con from 3.06924e-006 to 3.06924e-006
Heightened Def Con from 3.06924e-006 to 3.06936e-006
Heightened Def Con from 3.06936e-006 +to 3.07036e-006
Heightened Def Con from 3.07238e-006 to 3.07263e-006
Heightened Def Con from 3.07338e-006 to 3.0745e-006
Heightened Def Con from 3.07517e-006 to 3.07617e-006
Heightened Def Con from 3.07625e-006 to 3.07726e-006
Heightened Def Con from 3.07727e-006 to 3.07752e-006
Heightened Def Con from 3.11016e-006 to 3.11216e-006
Heightened Def Con from 3.11473e-006 to 3.11476e-006
Heightened Def Con from 3.11486e-006 to 3.11498e-006
Heightened Def Con from 3.11499e-006 to 3.11499e-006
Heightened Def Con from 3.11499e-006 to 3.11499e-006
Heightened Def Con from 3.11499e-006 to 3.11499e-006
Heightened Def Con from 3.11499e-006 +to 3.11524e-006
Heightened Def Con from 3.11549e-006 to 3.11549e-006
Heightened Def Con from 3.11549e-006 to 3.11749e-006
Heightened Def Con from 3.11826e-006 to 3.12026e-006
Heightened Def Con from 3.15081e-006 to 3.15096e-006
Heightened Def Con from 3.15096e-006 to 3.15208e-006
Heightened Def Con from 3.15635e-006 to 3.15835e-006
Heightened Def Con from 3.16448e-006 to 3.16462e-006
Heightened Def Con from 3.16476e-006 to 3.16501e-006
Heightened Def Con from 3.16502e-006 to 3.16502e-006
Heightened Def Con from 3.16502e-006 to 3.16603e-006
Heightened Def Con from 3.16629e-006 to 3.16654e-006
Heightened Def Con from 3.16681e-006 to 3.16695e-006
Heightened Def Con from 3.16708e-006 to 3.1682e-006
Heightened Def Con from 3.16851e-006 to 3.17051e-006
Heightened Def Con from 3.17654e-006 to 3.17755e-006
Heightened Def Con from 3.178e-006 to 3.17802e-006
Heightened Def Con from 3.17802e-006 to 3.17902e-006
Heightened Def Con from 3.17902e-006 to 3.17902e-006
Heightened Def Con from 3.17902e-006 to 3.17916e-006
Heightened Def Con from 3.18051e-006 to 3.18152e-006
Heightened Def Con from 3.18153e-006 to 3.18155e-006
Heightened Def Con from 3.18155e-006 to 3.18355e-006
Heightened Def Con from 3.18392e-006 to 3.18392e-006
Heightened Def Con from 3.18392e-006 to 3.18405e-006
Heightened Def Con from 3.18405e-006 to 3.18417e-006
Heightened Def Con from 3.18417e-006 to 3.18442e-006
Heightened Def Con from 3.18454e-006 to 3.18454e-006
Heightened Def Con from 3.18454e-006 to 3.18466e-006
Heightened Def Con from 3.18466e-006 to 3.18466e-006
Heightened Def Con from 3.18466e-006 to 3.18479e-006
Heightened Def Con from 3.1848e-006 to 3.18505e-006
Heightened Def Con from 3.18506e-006 to 3.18706e-006
Heightened Def Con from 3.18706e-006 to 3.18719e-006
Heightened Def Con from 3.18719e-006 to 3.18919e-006
Heightened Def Con from 3.19869e-006 to 3.19981e-006
Heightened Def Con from 3.19982e-006 to 3.20007e-006
Heightened Def Con from 3.20017e-006 to 3.20118e-006
Heightened Def Con from 3.20122e-006 to 3.20134e-006
Heightened Def Con from 3.20134e-006 to 3.20148e-006
Heightened Def Con from 3.20195e-006 to 3.20195e-006
Heightened Def Con from 3.20195e-006 to 3.20395e-006
Heightened Def Con from 3.20421e-006 to 3.20421e-006
Heightened Def Con from 3.20421e-006 to 3.20421e-006
Heightened Def Con from 3.20424e-006 to 3.20449e-006
Heightened Def Con from 3.20481e-006 to 3.20493e-006
Heightened Def Con from 3.20493e-006 to 3.20518e-006
Heightened Def Con from 3.20524e-006 to 3.20527e-006
Heightened Def Con from 3.20527e-006 to 3.20727e-006
Heightened Def Con from 3.21344e-006 to 3.21444e-006
Heightened Def Con from 3.21444e-006 to 3.21644e-006
Heightened Def Con from 3.21648e-006 to 3.21848e-006
Heightened Def Con from 3.21937e-006 to 3.22038e-006
Heightened Def Con from 3.22065e-006 to 3.22066e-006
Heightened Def Con from 3.22077e-006 to 3.2208e-006
Heightened Def Con from 3.22081e-006 to 3.22085e-006
Heightened Def Con from 3.22085e-006 to 3.22185e-006
Heightened Def Con from 3.22186e-006 to 3.22298e-006
Heightened Def Con from 3.22302e-006 to 3.22502e-006
Heightened Def Con from 3.22502e-006 to 3.22614e-006
Heightened Def Con from 3.22619e-006 to 3.22621e-006
Heightened Def Con from 3.22621e-006 to 3.22723e-006
Heightened Def Con from 3.22726e-006 to 3.22826e-006
Heightened Def Con from 3.22826e-006 to 3.22939e-006
Heightened Def Con from 3.23192e-006 to 3.23392e-006
Heightened Def Con from 3.38442e-006 to 3.38467e-006
Heightened Def Con from 3.38516e-006 to 3.3853e-006
Heightened Def Con from 3.38531e-006 to 3.38534e-006
Heightened Def Con from 3.38576e-006 to 3.38601e-006
Heightened Def Con from 3.387e-006 to 3.389e-006
Heightened Def Con from 3.45113e-006 to 3.45213e-006
Heightened Def Con from 3.45213e-006 to 3.45313e-006
Heightened Def Con from 3.45313e-006 to 3.45426e-006
Heightened Def Con from 3.45503e-006 to 3.45506e-006
Heightened Def Con from 3.45506e-006 to 3.45531e-006
Heightened Def Con from 3.45559e-006 to 3.45759e-006
Heightened Def Con from 3.45869e-006 to 3.45882e-006
Heightened Def Con from 3.45882e-006 to 3.46082e-006
Heightened Def Con from 3.4769e-006 to 3.4789e-006
Heightened Def Con from 3.47894e-006 to 3.48094e-006
Heightened Def Con from 3.48137e-006 to 3.48237e-006
Heightened Def Con from 3.48238e-006 to 3.48241e-006
Heightened Def Con from 3.48242e-006 to 3.48242e-006
Heightened Def Con from 3.48243e-006 to 3.48243e-006
Heightened Def Con from 3.48243e-006 to 3.48268e-006
Heightened Def Con from 3.48269e-006 to 3.48269e-006
Heightened Def Con from 3.48269e-006 to 3.48294e-006
Heightened Def Con from 3.4832e-006 to 3.4832e-006
Heightened Def Con from 3.4832e-006 to 3.4832e-006
Heightened Def Con from 3.48321e-006 to 3.48335e-006
Heightened Def Con from 3.48344e-006 to 3.48344e-006
Heightened Def Con from 3.48344e-006 to 3.48446e-006
Heightened Def Con from 3.48453e-006 to 3.48565e-006
Heightened Def Con from 3.48565e-006 to 3.48565e-006
Heightened Def Con from 3.48565e-006 to 3.48568e-006
Heightened Def Con from 3.48568e-006 to 3.48583e-006
Heightened Def Con from 3.48592e-006 to 3.48606e-006
Heightened Def Con from 3.48612e-006 to 3.48624e-006
Heightened Def Con from 3.48624e-006 to 3.48824e-006
Heightened Def Con from 3.49051e-006 to 3.49153e-006
Heightened Def Con from 3.49153e-006 to 3.49167e-006
Heightened Def Con from 3.49167e-006 to 3.4917e-006
Heightened Def Con from 3.49176e-006 to 3.49179e-006
Heightened Def Con from 3.49189e-006 to 3.49192e-006
Heightened Def Con from 3.49195e-006 to 3.49209e-006
Heightened Def Con from 3.49212e-006 to 3.49412e-006
Heightened Def Con from 3.52428e-006 to 3.52453e-006
Heightened Def Con from 3.52528e-006 to 3.52641e-006
Heightened Def Con from 3.55849e-006 to 3.55849e-006
Heightened Def Con from 3.55849e-006 to 3.55849e-006
Heightened Def Con from 3.55849e-006 to 3.55849e-006
Heightened Def Con from 3.55849e-006 to 3.55852e-006
Heightened Def Con from 3.55852e-006 +to 3.55852e-006
Heightened Def Con from 3.55852e-006 to 3.55865e-006
Heightened Def Con from 3.55865e-006 to 3.55966e-006
Heightened Def Con from 3.55972e-006 to 3.55975e-006
Heightened Def Con from 3.55976e-006 to 3.56176e-006
Heightened Def Con from 3.56185e-006 to 3.56385e-006
Heightened Def Con from 3.56385e-006 to 3.56585e-006
Heightened Def Con from 3.69892e-006 to 3.69917e-006
Heightened Def Con from 3.69921e-006 to 3.70121e-006
Heightened Def Con from 3.7033e-006 to 3.70432e-006
Heightened Def Con from 3.70514e-006 to 3.70539e-006
Heightened Def Con from 3.70541e-006 to 3.70543e-006
Heightened Def Con from 3.70543e-006 to 3.70743e-006
Heightened Def Con from 3.70753e-006 to 3.70754e-006
Heightened Def Con from 3.70754e-006 to 3.70867e-006
Heightened Def Con from 3.70867e-006 to 3.70867e-006
Heightened Def Con from 3.70867e-006 to 3.71067e-006
Heightened Def Con from 3.75863e-006 to 3.75976e-006
Heightened Def Con from 3.7763e-006 to 3.77631e-006
Heightened Def Con from 3.77631e-006 to 3.77831e-006
Heightened Def Con from 3.84164e-006 to 3.84189e-006
Heightened Def Con from 3.84199e-006 to 3.84299e-006
Heightened Def Con from 3.84299e-006 to 3.84499e-006
Heightened Def Con from 3.847e-006 to 3.849e-006
Heightened Def Con from 3.84901e-006 to 3.84901e-006
Heightened Def Con from 3.84901e-006 to 3.85101e-006
Heightened Def Con from 3.85112e-006 to 3.85113e-006
Heightened Def Con from 3.85113e-006 to 3.85226e-006
Heightened Def Con from 3.85798e-006 to 3.8581e-006
Heightened Def Con from 3.8581e-006 to 3.8601e-006
Heightened Def Con from 3.92386e-006 to 3.92388e-006
Heightened Def Con from 3.92388e-006 to 3.92588e-006
Heightened Def Con from 3.92588e-006 to 3.92588e-006
Heightened Def Con from 3.92589e-006 to 3.92689e-006
Heightened Def Con from 3.92689e-006 to 3.92889e-006
Heightened Def Con from 3.99506e-006 to 3.99507e-006
Heightened Def Con from 3.99507e-006 to 3.99507e-006
Heightened Def Con from 3.99507e-006 to 3.99609e-006
Heightened Def Con from 3.99631e-006 to 3.99743e-006
Heightened Def Con from 3.99818e-006 to 3.99822e-006
Heightened Def Con from 3.99822e-006 to 3.99934e-006
Heightened Def Con from 3.99939e-006 to 4.00139e-006
Heightened Def Con from 4.01794e-006 to 4.01994e-006
Heightened Def Con from 4.05719e-006 to 4.05919e-006
Heightened Def Con from 4.05951e-006 to 4.05965e-006
Heightened Def Con from 4.05965e-006 to 4.06165e-006
Heightened Def Con from 4.06166e-006 to 4.06366e-006
Heightened Def Con from 4.06566e-006 to 4.06591e-006
Heightened Def Con from 4.06595e-006 to 4.06795e-006
Heightened Def Con from 4.08227e-006 to 4.08252e-006
Heightened Def Con from 4.08262e-006 to 4.08265e-006
Heightened Def Con from 4.0829e-006 to 4.0849e-006
Heightened Def Con from 4.1254e-006 to 4.1274e-006
Heightened Def Con from 4.1277e-006 to 4.12772e-006
Heightened Def Con from 4.12774e-006 to 4.12776e-006
Heightened Def Con from 4.12776e-006 to 4.12876e-006
Heightened Def Con from 4.12876e-006 to 4.12879e-006
Heightened Def Con from 4.12879e-006 to 4.12879e-006
Heightened Def Con from 4.12879e-006 to 4.13079e-006
Heightened Def Con from 4.13106e-006 to 4.13119e-006
Heightened Def Con from 4.13121e-006 to 4.13321e-006
Heightened Def Con from 4.13522e-006 to 4.13536e-006
Heightened Def Con from 4.13536e-006 to 4.13649e-006
Heightened Def Con from 4.1365e-006 to 4.13762e-006
Heightened Def Con from 4.13762e-006 to 4.13962e-006
Heightened Def Con from 4.23209e-006 to 4.23322e-006
Heightened Def Con from 4.23423e-006 to 4.23623e-006

Date: Sat Aug 30 08:03:06 2014
Total elapsed time: 24.160 seconds.

tnom = 27
temp = 27
method = modified trap
totiter = 3045167
traniter = 3043538
tranpoints = 341454
accept = 100905
rejected = 260292
matrix size = 33
fillins = 85
solver = Normal
Matrix Compiler1: 6.41 KB object code size  1.3/0.8/[0.5]
Matrix Compiler2: 4.15 KB object code size  0.8/0.8/[0.5]


